c:/temp/sym/json/222-octane.json
__Jmol-15_08012216153D 1   1.00000     0.00000     0
Jmol version 15.2.66  2021-02-10 09:12 EXTRACT: ({0:21})
 22 23  0  0  0  0            999 V2000
    0.0000   -1.4402    0.7646 C   0  0  2  0  0  0
    0.0000    0.0000    1.2819 C   0  0  2  0  0  0
    0.0001   -1.4403   -0.7645 C   0  0  2  0  0  0
   -1.2472    0.7202    0.7646 C   0  0  2  0  0  0
    1.2474    0.7200    0.7646 C   0  0  2  0  0  0
    0.0000    0.0000   -1.2819 C   0  0  1  0  0  0
   -1.2473    0.7202   -0.7646 C   0  0  2  0  0  0
    1.2473    0.7200   -0.7646 C   0  0  2  0  0  0
   -0.8821   -1.9815    1.1567 H   0  0  0  0  0  0
    0.8818   -1.9816    1.1567 H   0  0  0  0  0  0
    0.0000    0.0000    2.3959 H   0  0  0  0  0  0
   -0.8820   -1.9815   -1.1567 H   0  0  0  0  0  0
    0.8818   -1.9816   -1.1566 H   0  0  0  0  0  0
   -1.2750    1.7546    1.1567 H   0  0  0  0  0  0
   -2.1570    0.2271    1.1567 H   0  0  0  0  0  0
    2.1570    0.2269    1.1567 H   0  0  0  0  0  0
    1.2752    1.7545    1.1567 H   0  0  0  0  0  0
    0.0000    0.0000   -2.3960 H   0  0  0  0  0  0
   -1.2751    1.7546   -1.1567 H   0  0  0  0  0  0
   -2.1570    0.2271   -1.1567 H   0  0  0  0  0  0
    2.1570    0.2269   -1.1567 H   0  0  0  0  0  0
    1.2753    1.7544   -1.1567 H   0  0  0  0  0  0
  1  2  1  0  0  0
  1  3  1  0  0  0
  1  9  1  0  0  0
  1 10  1  0  0  0
  2  4  1  0  0  0
  2  5  1  0  0  0
  2 11  1  0  0  0
  3  6  1  0  0  0
  3 12  1  0  0  0
  3 13  1  0  0  0
  4  7  1  0  0  0
  4 14  1  0  0  0
  4 15  1  0  0  0
  5  8  1  0  0  0
  5 16  1  0  0  0
  5 17  1  0  0  0
  6  7  1  0  0  0
  6  8  1  0  0  0
  6 18  1  0  0  0
  7 19  1  0  0  0
  7 20  1  0  0  0
  8 21  1  0  0  0
  8 22  1  0  0  0
M  END
