c:/temp/sym/json/adam.json
__Jmol-15_08012216153D 1   1.00000     0.00000     0
Jmol version 15.2.66  2021-02-10 09:12 EXTRACT: ({0:43})
 44 50  0  0  0  0            999 V2000
    2.3886   -0.9105   -3.7111 C   0  0  0  0  0  0
    2.9986    1.5037    0.1514 Cl  0  0  0  0  0  0
    2.0308    0.1107   -2.7399 N   0  0  0  0  0  0
   -0.0187   -1.1545   -0.6917 O   0  0  0  0  0  0
    1.6302    0.0000   -0.9298 Ti  0  0  0  0  0  0
    1.8709    1.4133   -3.3840 C   0  0  0  0  0  0
   -2.9986   -1.5037    0.1514 Cl  0  0  0  0  0  0
   -2.0308   -0.1107   -2.7399 N   0  0  0  0  0  0
    0.0187    1.1545   -0.6917 O   0  0  0  0  0  0
   -1.6302    0.0000   -0.9298 Ti  0  0  0  0  0  0
   -2.3886    0.9105   -3.7111 C   0  0  0  0  0  0
   -1.8709   -1.4133   -3.3840 C   0  0  0  0  0  0
    0.2319   -2.5565   -0.5653 C   0  0  0  0  0  0
   -0.2319    2.5565   -0.5653 C   0  0  0  0  0  0
    2.3706   -1.6521   -0.3923 N   0  0  0  0  0  0
   -2.3706    1.6521   -0.3923 N   0  0  0  0  0  0
   -1.5083    2.6297    0.1995 C   0  0  0  0  0  0
    1.5083   -2.6297    0.1995 C   0  0  0  0  0  0
    1.2696   -2.3112    1.6457 C   0  0  0  0  0  0
   -1.2696    2.3112    1.6457 C   0  0  0  0  0  0
    1.5234    5.1459    3.2984 C   0  0  0  0  0  0
    1.9936    3.9765    2.6791 C   0  0  0  0  0  0
    1.0833    3.0527    2.1405 C   0  0  0  0  0  0
   -0.2971    3.2980    2.2214 C   0  0  0  0  0  0
   -0.7679    4.4674    2.8412 C   0  0  0  0  0  0
    0.1429    5.3919    3.3797 C   0  0  0  0  0  0
   -1.5234   -5.1459    3.2984 C   0  0  0  0  0  0
   -1.9936   -3.9765    2.6791 C   0  0  0  0  0  0
   -1.0833   -3.0527    2.1405 C   0  0  0  0  0  0
    0.2971   -3.2980    2.2214 C   0  0  0  0  0  0
    0.7679   -4.4674    2.8412 C   0  0  0  0  0  0
   -0.1429   -5.3919    3.3797 C   0  0  0  0  0  0
    6.0622   -2.2282    0.5523 C   0  0  0  0  0  0
    4.5567   -1.9849    0.7471 C   0  0  0  0  0  0
    3.8283   -1.9364   -0.6054 C   0  0  0  0  0  0
    4.4433   -0.8671   -1.5227 C   0  0  0  0  0  0
    5.9479   -1.1101   -1.7179 C   0  0  0  0  0  0
    6.6772   -1.1589   -0.3651 C   0  0  0  0  0  0
   -6.0622    2.2282    0.5523 C   0  0  0  0  0  0
   -4.5567    1.9849    0.7471 C   0  0  0  0  0  0
   -3.8283    1.9364   -0.6054 C   0  0  0  0  0  0
   -4.4433    0.8671   -1.5227 C   0  0  0  0  0  0
   -5.9479    1.1101   -1.7179 C   0  0  0  0  0  0
   -6.6772    1.1589   -0.3651 C   0  0  0  0  0  0
 44 39  1  0  0  0
 43 44  1  0  0  0
 42 43  1  0  0  0
 42 41  1  0  0  0
 41 40  1  0  0  0
 40 39  1  0  0  0
 38 37  1  0  0  0
 37 36  1  0  0  0
 35 36  1  0  0  0
 35 15  1  0  0  0
 34 35  1  0  0  0
 33 34  1  0  0  0
 33 38  1  0  0  0
 32 27  1  0  0  0
 32 31  1  0  0  0
 31 30  1  0  0  0
 30 19  1  0  0  0
 30 29  1  0  0  0
 28 29  1  0  0  0
 27 28  1  0  0  0
 25 26  1  0  0  0
 24 25  1  0  0  0
 23 24  1  0  0  0
 23 22  1  0  0  0
 22 21  1  0  0  0
 21 26  1  0  0  0
 20 24  1  0  0  0
 20 17  1  0  0  0
 18 19  1  0  0  0
 18 13  1  0  0  0
 18 15  1  0  0  0
 16 41  1  0  0  0
 16 17  1  0  0  0
 15  5  1  0  0  0
 14 17  1  0  0  0
 13  4  1  0  0  0
 12  8  1  0  0  0
 10  9  1  0  0  0
 10 16  1  0  0  0
  9 14  1  0  0  0
  8 10  1  0  0  0
  8 11  1  0  0  0
  7 10  1  0  0  0
  5  3  1  0  0  0
  5  9  1  0  0  0
  5  2  1  0  0  0
  4 10  1  0  0  0
  4  5  1  0  0  0
  3  6  1  0  0  0
  1  3  1  0  0  0
M  END
