c:/temp/sym/json/adamantane.json
__Jmol-15_08012216143D 1   1.00000     0.00000     0
Jmol version 15.2.66  2021-02-10 09:12 EXTRACT: ({0:25})
 26 28  0  0  0  0            999 V2000
   -1.2468    0.0000   -0.8816 C   0  0  1  0  0  0
   -1.2468    1.2449    0.0000 C   0  0  2  0  0  0
    0.0000    0.0000   -1.7609 C   0  0  2  0  0  0
   -1.2468   -1.2468   -0.0000 C   0  0  2  0  0  0
    0.0000   -1.2468    0.8816 C   0  0  1  0  0  0
    1.2468   -1.2468   -0.0000 C   0  0  2  0  0  0
    1.2468    0.0000   -0.8816 C   0  0  2  0  0  0
    1.2468    1.2468    0.0000 C   0  0  2  0  0  0
    0.0000    1.2468    0.8816 C   0  0  2  0  0  0
    0.0000    0.0000    1.7609 C   0  0  1  0  0  0
   -2.1628    0.0000   -1.5295 H   0  0  0  0  0  0
   -2.1628    1.2468    0.6408 H   0  0  0  0  0  0
   -1.2468    2.1628   -0.6408 H   0  0  0  0  0  0
    0.0000    0.9062   -2.4195 H   0  0  0  0  0  0
    0.0000   -0.9062   -2.4195 H   0  0  0  0  0  0
   -1.2468   -2.1628   -0.6408 H   0  0  0  0  0  0
   -2.1628   -1.2468    0.6408 H   0  0  0  0  0  0
    0.0000   -2.1628    1.5295 H   0  0  0  0  0  0
    1.2468   -2.1628   -0.6408 H   0  0  0  0  0  0
    2.1628   -1.2468    0.6408 H   0  0  0  0  0  0
    2.1628    0.0000   -1.5295 H   0  0  0  0  0  0
    1.2468    2.1628   -0.6408 H   0  0  0  0  0  0
    2.1628    1.2468    0.6408 H   0  0  0  0  0  0
    0.0000    2.1628    1.5295 H   0  0  0  0  0  0
   -0.9062    0.0000    2.4195 H   0  0  0  0  0  0
    0.9062    0.0000    2.4195 H   0  0  0  0  0  0
  1  2  1  0  0  0
  1  3  1  0  0  0
  1  4  1  0  0  0
  1 11  1  0  0  0
  2  9  1  0  0  0
  2 12  1  0  0  0
  2 13  1  0  0  0
  3  7  1  0  0  0
  3 14  1  0  0  0
  3 15  1  0  0  0
  4  5  1  0  0  0
  4 16  1  0  0  0
  4 17  1  0  0  0
  5  6  1  0  0  0
  5 10  1  0  0  0
  5 18  1  0  0  0
  6  7  1  0  0  0
  6 19  1  0  0  0
  6 20  1  0  0  0
  7  8  1  0  0  0
  7 21  1  0  0  0
  8  9  1  0  0  0
  8 22  1  0  0  0
  8 23  1  0  0  0
  9 10  1  0  0  0
  9 24  1  0  0  0
 10 25  1  0  0  0
 10 26  1  0  0  0
M  END
