c:/temp/sym/json/ammonia.json
__Jmol-15_08012216143D 1   1.00000     0.00000     0
Jmol version 15.2.66  2021-02-10 09:12 EXTRACT: ({0:3})
  4  3  0  0  0  0            999 V2000
    0.0000    0.0000    0.2525 N   0  0  0  0  0  0
   -0.4761   -0.8247   -0.0842 H   0  0  0  0  0  0
   -0.4761    0.8247   -0.0842 H   0  0  0  0  0  0
    0.9522    0.0000   -0.0842 H   0  0  0  0  0  0
  1  2  1  0  0  0
  1  3  1  0  0  0
  1  4  1  0  0  0
M  END
