c:/temp/sym/json/avezac.json
__Jmol-15_08012216143D 1   1.00000     0.00000     0
Jmol version 15.2.66  2021-02-10 09:12 EXTRACT: ({0:78})
 79 84  0  0  0  0            999 V2000
    0.0000    0.0000   -0.0000 Ca  0  0  0  0  0  0
   -0.0002   -2.3225   -0.0003 O   0  0  0  0  0  0
    0.1396   -3.1700   -1.1863 C   0  0  1  0  0  0
   -0.2520   -4.5534   -0.7147 C   0  0  2  0  0  0
   -0.4923   -2.8177   -1.8772 H   0  0  0  0  0  0
    1.2434   -3.0864   -1.5267 H   0  0  0  0  0  0
    0.2254   -5.3984   -1.1312 H   0  0  0  0  0  0
   -1.2443   -4.5788   -0.5375 H   0  0  0  0  0  0
    0.2512   -4.5536    0.7136 C   0  0  1  0  0  0
   -0.1402   -3.1703    1.1855 C   0  0  1  0  0  0
    0.4918   -2.8183    1.8765 H   0  0  0  0  0  0
   -1.2440   -3.0866    1.5259 H   0  0  0  0  0  0
   -0.2264   -5.3986    1.1298 H   0  0  0  0  0  0
    1.2435   -4.5792    0.5363 H   0  0  0  0  0  0
    0.0002    2.3225    0.0003 O   0  0  0  0  0  0
   -0.1398    3.1703   -1.1854 C   0  0  1  0  0  0
    0.2518    4.5536   -0.7136 C   0  0  2  0  0  0
   -0.2510    4.5534    0.7148 C   0  0  1  0  0  0
    0.1404    3.1700    1.1862 C   0  0  1  0  0  0
   -0.4914    2.8178    1.8772 H   0  0  0  0  0  0
    1.2442    3.0862    1.5264 H   0  0  0  0  0  0
    0.2266    5.3983    1.1312 H   0  0  0  0  0  0
   -1.2434    4.5790    0.5377 H   0  0  0  0  0  0
   -0.2256    5.3987   -1.1298 H   0  0  0  0  0  0
    1.2442    4.5790   -0.5365 H   0  0  0  0  0  0
    0.4919    2.8182   -1.8765 H   0  0  0  0  0  0
   -1.2437    3.0868   -1.5257 H   0  0  0  0  0  0
   -0.0002    0.0003   -2.3225 O   0  0  0  0  0  0
   -1.1861    0.1405   -3.1700 C   0  0  1  0  0  0
   -0.7146   -0.2509   -4.5535 C   0  0  2  0  0  0
    0.7138    0.2520   -4.5535 C   0  0  1  0  0  0
    1.1856   -0.1397   -3.1703 C   0  0  1  0  0  0
    1.8766    0.4920   -2.8181 H   0  0  0  0  0  0
    1.5258   -1.2436   -3.0868 H   0  0  0  0  0  0
    1.1300   -0.2254   -5.3986 H   0  0  0  0  0  0
    0.5367    1.2444   -4.5789 H   0  0  0  0  0  0
   -1.1309    0.2268   -5.3984 H   0  0  0  0  0  0
   -0.5375   -1.2432   -4.5791 H   0  0  0  0  0  0
   -1.8771   -0.4913   -2.8179 H   0  0  0  0  0  0
   -1.5263    1.2444   -3.0862 H   0  0  0  0  0  0
    0.0002   -0.0003    2.3225 O   0  0  0  0  0  0
   -1.1856   -0.1403    3.1703 C   0  0  1  0  0  0
   -0.7138    0.2510    4.5536 C   0  0  2  0  0  0
    0.7145   -0.2521    4.5534 C   0  0  1  0  0  0
    1.1861    0.1395    3.1701 C   0  0  1  0  0  0
    1.8770   -0.4924    2.8178 H   0  0  0  0  0  0
    1.5265    1.2433    3.0865 H   0  0  0  0  0  0
    1.1310    0.2252    5.3984 H   0  0  0  0  0  0
    0.5373   -1.2445    4.5788 H   0  0  0  0  0  0
   -1.1301   -0.2266    5.3986 H   0  0  0  0  0  0
   -0.5365    1.2433    4.5792 H   0  0  0  0  0  0
   -1.8766    0.4916    2.8182 H   0  0  0  0  0  0
   -1.5260   -1.2441    3.0865 H   0  0  0  0  0  0
   -2.3225    0.0002    0.0002 O   0  0  0  0  0  0
   -3.1703   -1.1856    0.1401 C   0  0  1  0  0  0
   -4.5536   -0.7137   -0.2512 C   0  0  2  0  0  0
   -4.5534    0.7145    0.2520 C   0  0  1  0  0  0
   -3.1701    1.1861   -0.1396 C   0  0  1  0  0  0
   -2.8178    1.8770    0.4923 H   0  0  0  0  0  0
   -3.0865    1.5266   -1.2434 H   0  0  0  0  0  0
   -5.3984    1.1310   -0.2254 H   0  0  0  0  0  0
   -4.5788    0.5372    1.2443 H   0  0  0  0  0  0
   -5.3986   -1.1301    0.2263 H   0  0  0  0  0  0
   -4.5792   -0.5364   -1.2435 H   0  0  0  0  0  0
   -2.8182   -1.8765   -0.4918 H   0  0  0  0  0  0
   -3.0865   -1.5261    1.2439 H   0  0  0  0  0  0
    2.3225   -0.0002   -0.0002 O   0  0  0  0  0  0
    3.1701   -1.1861   -0.1404 C   0  0  1  0  0  0
    4.5535   -0.7146    0.2510 C   0  0  2  0  0  0
    4.5535    0.7138   -0.2518 C   0  0  1  0  0  0
    3.1703    1.1856    0.1399 C   0  0  1  0  0  0
    2.8181    1.8767   -0.4919 H   0  0  0  0  0  0
    3.0867    1.5257    1.2438 H   0  0  0  0  0  0
    5.3986    1.1300    0.2257 H   0  0  0  0  0  0
    4.5789    0.5368   -1.2442 H   0  0  0  0  0  0
    5.3984   -1.1309   -0.2266 H   0  0  0  0  0  0
    4.5791   -0.5376    1.2434 H   0  0  0  0  0  0
    2.8179   -1.8771    0.4914 H   0  0  0  0  0  0
    3.0863   -1.5263   -1.2443 H   0  0  0  0  0  0
  1  2  1  0  0  0
  1 15  1  0  0  0
  1 28  1  0  0  0
  1 41  1  0  0  0
  1 54  1  0  0  0
  1 67  1  0  0  0
  2  3  1  0  0  0
  2 10  1  0  0  0
  3  4  1  0  0  0
  3  5  1  0  0  0
  3  6  1  0  0  0
  4  7  1  0  0  0
  4  8  1  0  0  0
  4  9  1  0  0  0
  9 10  1  0  0  0
  9 13  1  0  0  0
  9 14  1  0  0  0
 10 11  1  0  0  0
 10 12  1  0  0  0
 15 16  1  0  0  0
 15 19  1  0  0  0
 16 17  1  0  0  0
 16 26  1  0  0  0
 16 27  1  0  0  0
 17 18  1  0  0  0
 17 24  1  0  0  0
 17 25  1  0  0  0
 18 19  1  0  0  0
 18 22  1  0  0  0
 18 23  1  0  0  0
 19 20  1  0  0  0
 19 21  1  0  0  0
 28 29  1  0  0  0
 28 32  1  0  0  0
 29 30  1  0  0  0
 29 39  1  0  0  0
 29 40  1  0  0  0
 30 31  1  0  0  0
 30 37  1  0  0  0
 30 38  1  0  0  0
 31 32  1  0  0  0
 31 35  1  0  0  0
 31 36  1  0  0  0
 32 33  1  0  0  0
 32 34  1  0  0  0
 41 42  1  0  0  0
 41 45  1  0  0  0
 42 43  1  0  0  0
 42 52  1  0  0  0
 42 53  1  0  0  0
 43 44  1  0  0  0
 43 50  1  0  0  0
 43 51  1  0  0  0
 44 45  1  0  0  0
 44 48  1  0  0  0
 44 49  1  0  0  0
 45 46  1  0  0  0
 45 47  1  0  0  0
 54 55  1  0  0  0
 54 58  1  0  0  0
 55 56  1  0  0  0
 55 65  1  0  0  0
 55 66  1  0  0  0
 56 57  1  0  0  0
 56 63  1  0  0  0
 56 64  1  0  0  0
 57 58  1  0  0  0
 57 61  1  0  0  0
 57 62  1  0  0  0
 58 59  1  0  0  0
 58 60  1  0  0  0
 67 68  1  0  0  0
 67 71  1  0  0  0
 68 69  1  0  0  0
 68 78  1  0  0  0
 68 79  1  0  0  0
 69 70  1  0  0  0
 69 76  1  0  0  0
 69 77  1  0  0  0
 70 71  1  0  0  0
 70 74  1  0  0  0
 70 75  1  0  0  0
 71 72  1  0  0  0
 71 73  1  0  0  0
M  END
