c:/temp/sym/json/bignou01.json
__Jmol-15_08012216143D 1   1.00000     0.00000     0
Jmol version 15.2.66  2021-02-10 09:12 EXTRACT: ({0:18})
 19 24  0  0  0  0            999 V2000
    0.0000    0.0000    0.0000 Co  0  0  0  0  0  0
    1.6864    0.3215    1.0189 N   0  0  0  0  0  0
    2.4643   -0.9443    1.0097 C   0  0  0  0  0  0
    2.4964    1.4413    0.4239 C   0  0  0  0  0  0
   -1.6864   -0.3215   -1.0189 N   0  0  0  0  0  0
   -1.1216    1.2997    1.0189 N   0  0  0  0  0  0
    1.1216   -1.2997   -1.0189 N   0  0  0  0  0  0
   -0.5648   -1.6212    1.0189 N   0  0  0  0  0  0
    0.5648    1.6212   -1.0189 N   0  0  0  0  0  0
    2.4964   -1.4413   -0.4239 C   0  0  0  0  0  0
    2.0499    1.6620   -1.0097 C   0  0  0  0  0  0
   -2.4643    0.9443   -1.0097 C   0  0  0  0  0  0
   -2.4964   -1.4413   -0.4239 C   0  0  0  0  0  0
   -0.4144    2.6063    1.0097 C   0  0  0  0  0  0
   -2.4964    1.4413    0.4239 C   0  0  0  0  0  0
    0.4144   -2.6063   -1.0097 C   0  0  0  0  0  0
   -2.0499   -1.6620    1.0097 C   0  0  0  0  0  0
    0.0000   -2.8826    0.4239 C   0  0  0  0  0  0
    0.0000    2.8826   -0.4239 C   0  0  0  0  0  0
  1  7  1  0  0  0
  1  8  1  0  0  0
  1  2  1  0  0  0
  2  4  1  0  0  0
  2  3  1  0  0  0
  3 10  1  0  0  0
  5  1  1  0  0  0
  6 14  1  0  0  0
  6  1  1  0  0  0
  7 10  1  0  0  0
  8 18  1  0  0  0
  9  1  1  0  0  0
  9 11  1  0  0  0
 11  4  1  0  0  0
 12  5  1  0  0  0
 13  5  1  0  0  0
 13 17  1  0  0  0
 14 19  1  0  0  0
 15 12  1  0  0  0
 15  6  1  0  0  0
 16  7  1  0  0  0
 17  8  1  0  0  0
 18 16  1  0  0  0
 19  9  1  0  0  0
M  END
