c:/temp/sym/json/brf5.json
__Jmol-15_08012216143D 1   1.00000     0.00000     0
Jmol version 15.2.66  2021-02-10 09:12 EXTRACT: ({0:5})
  6  5  0  0  0  0            999 V2000
    0.0000    0.0000   -0.4183 Br  0  0  0  0  0  0
   -1.2168   -1.2168   -0.2169 F   0  0  0  0  0  0
    1.2168   -1.2168   -0.2169 F   0  0  0  0  0  0
    0.0000    0.0000    1.2858 F   0  0  0  0  0  0
    1.2168    1.2168   -0.2169 F   0  0  0  0  0  0
   -1.2168    1.2168   -0.2169 F   0  0  0  0  0  0
  6  1  1  0  0  0
  4  1  1  0  0  0
  2  1  1  0  0  0
  1  3  1  0  0  0
  1  5  1  0  0  0
M  END
