c:/temp/sym/json/bzofox.json
__Jmol-15_08012216153D 1   1.00000     0.00000     0
Jmol version 15.2.66  2021-02-10 09:12 EXTRACT: ({0:17})
 18 21  0  0  0  0            999 V2000
    1.2267   -0.7461    0.0000 C   0  0  0  0  0  0
    1.2267    0.6844    0.0000 C   0  0  0  0  0  0
    0.0329    1.4353    0.0000 C   0  0  0  0  0  0
   -1.2060    0.7201    0.0000 C   0  0  0  0  0  0
   -1.2595   -0.6894    0.0000 C   0  0  0  0  0  0
   -0.0207   -1.4045    0.0000 C   0  0  0  0  0  0
    2.2349   -1.5798    0.0000 N   0  0  0  0  0  0
    2.2387    1.5438    0.0000 N   0  0  0  0  0  0
    0.2508    2.7251    0.0000 N   0  0  0  0  0  0
   -2.4562    1.1668    0.0000 N   0  0  0  0  0  0
   -2.4855   -1.1458    0.0000 N   0  0  0  0  0  0
    0.2175   -2.7104    0.0000 N   0  0  0  0  0  0
    1.6773   -2.8473    0.0000 O   0  0  0  0  0  0
    3.4405    1.4568    0.0000 O   0  0  0  0  0  0
    1.6273    2.8760    0.0000 O   0  0  0  0  0  0
   -2.9817    2.2516    0.0000 O   0  0  0  0  0  0
   -3.3044   -0.0293    0.0000 O   0  0  0  0  0  0
   -0.4593   -3.7075    0.0000 O   0  0  0  0  0  0
  1  2  1  0  0  0
  1  6  1  0  0  0
  1  7  1  0  0  0
  2  3  1  0  0  0
  2  8  1  0  0  0
  3  4  1  0  0  0
  3  9  1  0  0  0
  4  5  1  0  0  0
  4 10  1  0  0  0
  5  6  1  0  0  0
  5 11  1  0  0  0
  6 12  1  0  0  0
  7 13  1  0  0  0
  8 14  1  0  0  0
  8 15  1  0  0  0
  9 15  1  0  0  0
 10 16  1  0  0  0
 10 17  1  0  0  0
 11 17  1  0  0  0
 12 13  1  0  0  0
 12 18  1  0  0  0
M  END
