c:/temp/sym/json/c2h2br2cl2.json
__Jmol-15_08012216153D 1   1.00000     0.00000     0
Jmol version 15.2.66  2021-02-10 09:12 EXTRACT: ({0:7})
  8  7  0  0  0  0            999 V2000
    0.0000   -0.7700    0.0000 C   0  0  1  0  0  0
    0.0000    0.7700    0.0000 C   0  0  2  0  0  0
    1.6595   -1.3565    0.0000 Cl  0  0  0  0  0  0
   -1.6595    1.3565    0.0000 Cl  0  0  0  0  0  0
   -0.9005   -1.4065    1.5596 Br  0  0  0  0  0  0
   -0.5135   -1.1335   -0.8900 H   0  0  0  0  0  0
    0.9005    1.4065   -1.5596 Br  0  0  0  0  0  0
    0.5135    1.1335    0.8900 H   0  0  0  0  0  0
  1  2  1  0  0  0
  1  3  1  0  0  0
  1  5  1  0  0  0
  1  6  1  0  0  0
  2  4  1  0  0  0
  2  7  1  0  0  0
  2  8  1  0  0  0
M  END
