c:/temp/sym/json/co-4-cp-4.json
__Jmol-15_08012216143D 1   1.00000     0.00000     0
Jmol version 15.2.66  2021-02-10 09:12 EXTRACT: ({0:43})
 44 66  0  0  0  0            999 V2000
    0.8952    0.8858    0.9137 Co  0  0  0  0  0  0
    0.8857   -0.8952   -0.9137 Co  0  0  0  0  0  0
   -0.8952   -0.8857    0.9137 Co  0  0  0  0  0  0
   -0.8858    0.8952   -0.9138 Co  0  0  0  0  0  0
    2.8727    1.5713    1.3925 C   0  0  2  0  0  0
    2.2882    0.9331    2.5324 C   0  0  1  0  0  0
    1.1777    1.6938    2.8858 C   0  0  1  0  0  0
    1.0374    2.7560    1.9664 C   0  0  1  0  0  0
    2.0800    2.6595    1.0263 C   0  0  2  0  0  0
    2.7560   -1.0374   -1.9665 C   0  0  1  0  0  0
    2.6595   -2.0800   -1.0265 C   0  0  2  0  0  0
    1.5714   -2.8727   -1.3925 C   0  0  2  0  0  0
    0.9330   -2.2883   -2.5324 C   0  0  2  0  0  0
    1.6937   -1.1777   -2.8859 C   0  0  1  0  0  0
   -2.8727   -1.5714    1.3925 C   0  0  2  0  0  0
   -2.2882   -0.9330    2.5324 C   0  0  1  0  0  0
   -1.1777   -1.6937    2.8859 C   0  0  1  0  0  0
   -1.0374   -2.7560    1.9665 C   0  0  1  0  0  0
   -2.0799   -2.6595    1.0264 C   0  0  2  0  0  0
   -2.6596    2.0800   -1.0264 C   0  0  2  0  0  0
   -2.7560    1.0374   -1.9664 C   0  0  1  0  0  0
   -1.6937    1.1777   -2.8858 C   0  0  1  0  0  0
   -0.9330    2.2882   -2.5324 C   0  0  1  0  0  0
   -1.5714    2.8727   -1.3925 C   0  0  2  0  0  0
    3.9384    1.5632    1.2179 H   0  0  0  0  0  0
    2.8714    0.3907    3.2601 H   0  0  0  0  0  0
    0.8580    1.7894    3.9125 H   0  0  0  0  0  0
    0.6043    3.7029    2.2503 H   0  0  0  0  0  0
    2.4899    3.5274    0.5327 H   0  0  0  0  0  0
    3.7028   -0.6043   -2.2503 H   0  0  0  0  0  0
    3.5273   -2.4899   -0.5327 H   0  0  0  0  0  0
    1.5632   -3.9383   -1.2178 H   0  0  0  0  0  0
    0.3906   -2.8714   -3.2601 H   0  0  0  0  0  0
    1.7893   -0.8579   -3.9125 H   0  0  0  0  0  0
   -3.9383   -1.5632    1.2179 H   0  0  0  0  0  0
   -2.8713   -0.3906    3.2602 H   0  0  0  0  0  0
   -0.8579   -1.7893    3.9126 H   0  0  0  0  0  0
   -0.6043   -3.7028    2.2504 H   0  0  0  0  0  0
   -2.4899   -3.5274    0.5327 H   0  0  0  0  0  0
   -3.5274    2.4898   -0.5327 H   0  0  0  0  0  0
   -3.7028    0.6043   -2.2503 H   0  0  0  0  0  0
   -1.7894    0.8579   -3.9125 H   0  0  0  0  0  0
   -0.3907    2.8714   -3.2601 H   0  0  0  0  0  0
   -1.5632    3.9383   -1.2179 H   0  0  0  0  0  0
  1  2  1  0  0  0
  1  3  1  0  0  0
  1  4  1  0  0  0
  1  5  1  0  0  0
  1  6  1  0  0  0
  1  7  1  0  0  0
  1  8  1  0  0  0
  1  9  1  0  0  0
  2  3  1  0  0  0
  2  4  1  0  0  0
  2 10  1  0  0  0
  2 11  1  0  0  0
  2 12  1  0  0  0
  2 13  1  0  0  0
  2 14  1  0  0  0
  3  4  1  0  0  0
  3 15  1  0  0  0
  3 16  1  0  0  0
  3 17  1  0  0  0
  3 18  1  0  0  0
  3 19  1  0  0  0
  4 20  1  0  0  0
  4 21  1  0  0  0
  4 22  1  0  0  0
  4 23  1  0  0  0
  4 24  1  0  0  0
  5  6  1  0  0  0
  5  9  1  0  0  0
  5 25  1  0  0  0
  6  7  1  0  0  0
  6 26  1  0  0  0
  7  8  1  0  0  0
  7 27  1  0  0  0
  8  9  1  0  0  0
  8 28  1  0  0  0
  9 29  1  0  0  0
 10 11  1  0  0  0
 10 14  1  0  0  0
 10 30  1  0  0  0
 11 12  1  0  0  0
 11 31  1  0  0  0
 12 13  1  0  0  0
 12 32  1  0  0  0
 13 14  1  0  0  0
 13 33  1  0  0  0
 14 34  1  0  0  0
 15 16  1  0  0  0
 15 19  1  0  0  0
 15 35  1  0  0  0
 16 17  1  0  0  0
 16 36  1  0  0  0
 17 18  1  0  0  0
 17 37  1  0  0  0
 18 19  1  0  0  0
 18 38  1  0  0  0
 19 39  1  0  0  0
 20 21  1  0  0  0
 20 24  1  0  0  0
 20 40  1  0  0  0
 21 22  1  0  0  0
 21 41  1  0  0  0
 22 23  1  0  0  0
 22 42  1  0  0  0
 23 24  1  0  0  0
 23 43  1  0  0  0
 24 44  1  0  0  0
M  END
