c:/temp/sym/json/coronene.json
__Jmol-15_08012216153D 1   1.00000     0.00000     0
Jmol version 15.2.66  2021-02-10 09:12 EXTRACT: ({0:35})
 36 42  0  0  0  0            999 V2000
   -1.2506   -0.7220    0.0000 C   0  0  0  0  0  0
   -1.2506    0.7220    0.0000 C   0  0  0  0  0  0
    0.0000    1.4440    0.0000 C   0  0  0  0  0  0
    1.2506    0.7220    0.0000 C   0  0  0  0  0  0
    1.2506   -0.7220    0.0000 C   0  0  0  0  0  0
    0.0000   -1.4440    0.0000 C   0  0  0  0  0  0
   -2.4700   -1.4260    0.0000 C   0  0  0  0  0  0
   -2.4699    1.4261    0.0000 C   0  0  0  0  0  0
    0.0000   -2.8519    0.0000 C   0  0  0  0  0  0
    0.0000    2.8519    0.0000 C   0  0  0  0  0  0
    2.4699   -1.4261    0.0000 C   0  0  0  0  0  0
    2.4700    1.4260    0.0000 C   0  0  0  0  0  0
   -3.6981   -0.6860    0.0000 C   0  0  0  0  0  0
   -2.4431   -2.8597    0.0000 C   0  0  0  0  0  0
   -3.6981    0.6860    0.0000 C   0  0  0  0  0  0
   -2.4432    2.8597    0.0000 C   0  0  0  0  0  0
   -1.2550   -3.5456    0.0000 C   0  0  0  0  0  0
    1.2550   -3.5457    0.0000 C   0  0  0  0  0  0
   -1.2550    3.5457    0.0000 C   0  0  0  0  0  0
    1.2550    3.5456    0.0000 C   0  0  0  0  0  0
    2.4432   -2.8597    0.0000 C   0  0  0  0  0  0
    3.6981   -0.6860    0.0000 C   0  0  0  0  0  0
    2.4431    2.8597    0.0000 C   0  0  0  0  0  0
    3.6981    0.6860    0.0000 C   0  0  0  0  0  0
   -4.6360   -1.2174    0.0000 H   0  0  0  0  0  0
   -3.3723   -3.4061    0.0000 H   0  0  0  0  0  0
   -4.6360    1.2174    0.0000 H   0  0  0  0  0  0
   -3.3723    3.4061    0.0000 H   0  0  0  0  0  0
   -1.2636   -4.6235    0.0000 H   0  0  0  0  0  0
    1.2637   -4.6235    0.0000 H   0  0  0  0  0  0
   -1.2637    4.6235    0.0000 H   0  0  0  0  0  0
    1.2636    4.6235    0.0000 H   0  0  0  0  0  0
    3.3723   -3.4061    0.0000 H   0  0  0  0  0  0
    4.6360   -1.2174    0.0000 H   0  0  0  0  0  0
    3.3723    3.4061    0.0000 H   0  0  0  0  0  0
    4.6360    1.2174    0.0000 H   0  0  0  0  0  0
  1  2  1  0  0  0
  1  6  1  0  0  0
  1  7  1  0  0  0
  2  3  1  0  0  0
  2  8  1  0  0  0
  3  4  1  0  0  0
  3 10  1  0  0  0
  4  5  1  0  0  0
  4 12  1  0  0  0
  5  6  1  0  0  0
  5 11  1  0  0  0
  6  9  1  0  0  0
  7 13  1  0  0  0
  7 14  1  0  0  0
  8 15  1  0  0  0
  8 16  1  0  0  0
  9 17  1  0  0  0
  9 18  1  0  0  0
 10 19  1  0  0  0
 10 20  1  0  0  0
 11 21  1  0  0  0
 11 22  1  0  0  0
 12 23  1  0  0  0
 12 24  1  0  0  0
 13 15  1  0  0  0
 13 25  1  0  0  0
 14 17  1  0  0  0
 14 26  1  0  0  0
 15 27  1  0  0  0
 16 19  1  0  0  0
 16 28  1  0  0  0
 17 29  1  0  0  0
 18 21  1  0  0  0
 18 30  1  0  0  0
 19 31  1  0  0  0
 20 23  1  0  0  0
 20 32  1  0  0  0
 21 33  1  0  0  0
 22 24  1  0  0  0
 22 34  1  0  0  0
 23 35  1  0  0  0
 24 36  1  0  0  0
M  END
