c:/temp/sym/json/cubane.json
__Jmol-15_08012216153D 1   1.00000     0.00000     0
Jmol version 15.2.66  2021-02-10 09:12 EXTRACT: ({0:15})
 16 20  0  0  0  0            999 V2000
   -0.7884    0.7884   -0.7884 C   0  0  2  0  0  0
   -0.7884   -0.7884   -0.7884 C   0  0  1  0  0  0
    0.7884   -0.7884   -0.7884 C   0  0  1  0  0  0
    0.7884    0.7884   -0.7884 C   0  0  2  0  0  0
   -0.7884    0.7884    0.7884 C   0  0  2  0  0  0
    0.7884    0.7884    0.7884 C   0  0  1  0  0  0
    0.7884   -0.7884    0.7884 C   0  0  1  0  0  0
   -0.7884   -0.7884    0.7884 C   0  0  2  0  0  0
   -1.4152    1.4152   -1.4152 H   0  0  0  0  0  0
   -1.4152   -1.4152   -1.4152 H   0  0  0  0  0  0
    1.4152   -1.4152   -1.4152 H   0  0  0  0  0  0
    1.4152    1.4152   -1.4152 H   0  0  0  0  0  0
   -1.4152    1.4152    1.4152 H   0  0  0  0  0  0
    1.4152    1.4152    1.4152 H   0  0  0  0  0  0
    1.4152   -1.4152    1.4152 H   0  0  0  0  0  0
   -1.4152   -1.4152    1.4152 H   0  0  0  0  0  0
  1  2  1  0  0  0
  1  4  1  0  0  0
  1  5  1  0  0  0
  1  9  1  0  0  0
  2  3  1  0  0  0
  2  8  1  0  0  0
  2 10  1  0  0  0
  3  4  1  0  0  0
  3  7  1  0  0  0
  3 11  1  0  0  0
  4  6  1  0  0  0
  4 12  1  0  0  0
  5  6  1  0  0  0
  5  8  1  0  0  0
  5 13  1  0  0  0
  6  7  1  0  0  0
  6 14  1  0  0  0
  7  8  1  0  0  0
  7 15  1  0  0  0
  8 16  1  0  0  0
M  END
