c:/temp/sym/json/cyclooctatetraene.json
__Jmol-15_08012216153D 1   1.00000     0.00000     0
Jmol version 15.2.66  2021-02-10 09:12 EXTRACT: ({0:15})
 16 16  0  0  0  0            999 V2000
   -1.5550    0.6091    0.3955 C   0  0  0  0  0  0
    1.5550   -0.6091    0.3955 C   0  0  0  0  0  0
    0.6091    1.5550   -0.3955 C   0  0  0  0  0  0
   -0.6091    1.5550    0.3955 C   0  0  0  0  0  0
   -0.6091   -1.5550   -0.3955 C   0  0  0  0  0  0
    0.6091   -1.5550    0.3955 C   0  0  0  0  0  0
    1.5550    0.6091   -0.3955 C   0  0  0  0  0  0
    2.4591   -0.7399    1.0186 H   0  0  0  0  0  0
    0.7399    2.4591   -1.0186 H   0  0  0  0  0  0
   -0.7399    2.4591    1.0186 H   0  0  0  0  0  0
   -0.7399   -2.4591   -1.0186 H   0  0  0  0  0  0
    0.7399   -2.4591    1.0186 H   0  0  0  0  0  0
    2.4591    0.7399   -1.0186 H   0  0  0  0  0  0
   -1.5550   -0.6091   -0.3955 C   0  0  0  0  0  0
   -2.4591   -0.7399   -1.0186 H   0  0  0  0  0  0
   -2.4591    0.7399    1.0186 H   0  0  0  0  0  0
  1  4  2  0  0  0
  1 14  1  0  0  0
  1 16  1  0  0  0
  2  6  2  0  0  0
  2  7  1  0  0  0
  2  8  1  0  0  0
  3  4  1  0  0  0
  3  7  2  0  0  0
  3  9  1  0  0  0
  4 10  1  0  0  0
  5  6  1  0  0  0
  5 11  1  0  0  0
  5 14  2  0  0  0
  6 12  1  0  0  0
  7 13  1  0  0  0
 14 15  1  0  0  0
M  END
