c:/temp/sym/json/cyclohexane_brcl.json
__Jmol-15_08012216153D 1   1.00000     0.00000     0
Jmol version 15.2.66  2021-02-10 09:12 EXTRACT: ({0:17})
 18 18  0  0  0  0            999 V2000
   -1.0890   -0.7700    0.6290 C   0  0  1  0  0  0
   -1.0890    0.7700    0.6290 C   0  0  1  0  0  0
    0.3630    1.2830    0.6290 C   0  0  2  0  0  0
    1.0890    0.7700   -0.6290 C   0  0  1  0  0  0
    1.0890   -0.7700   -0.6290 C   0  0  1  0  0  0
   -0.3630   -1.2830   -0.6290 C   0  0  1  0  0  0
   -0.2590   -1.3570    2.0660 Cl  0  0  0  0  0  0
   -2.1170   -1.1330    0.6290 H   0  0  0  0  0  0
   -1.9891    1.4070   -0.9310 Br  0  0  0  0  0  0
   -1.6030    1.1330    1.5190 H   0  0  0  0  0  0
    0.8770    0.9200    1.5190 H   0  0  0  0  0  0
    0.3630    2.3730    0.6290 H   0  0  0  0  0  0
    0.2590    1.3570   -2.0660 Cl  0  0  0  0  0  0
    2.1170    1.1330   -0.6290 H   0  0  0  0  0  0
    1.6030   -1.1330   -1.5190 H   0  0  0  0  0  0
    1.9891   -1.4070    0.9310 Br  0  0  0  0  0  0
   -0.3630   -2.3730   -0.6290 H   0  0  0  0  0  0
   -0.8770   -0.9200   -1.5190 H   0  0  0  0  0  0
  1  2  1  0  0  0
  1  6  1  0  0  0
  1  7  1  0  0  0
  1  8  1  0  0  0
  2  3  1  0  0  0
  2  9  1  0  0  0
  2 10  1  0  0  0
  3  4  1  0  0  0
  3 11  1  0  0  0
  3 12  1  0  0  0
  4  5  1  0  0  0
  4 13  1  0  0  0
  4 14  1  0  0  0
  5  6  1  0  0  0
  5 15  1  0  0  0
  5 16  1  0  0  0
  6 17  1  0  0  0
  6 18  1  0  0  0
M  END
