c:/temp/sym/json/cyocth.json
__Jmol-15_08012216153D 1   1.00000     0.00000     0
Jmol version 15.2.66  2021-02-10 09:12 EXTRACT: ({0:32})
 33 48  0  0  0  0            999 V2000
    1.6730   -0.6930    2.0035 C   0  0  2  0  0  0
    1.6730    0.6930    2.0035 C   0  0  1  0  0  0
    0.6930    1.6730    2.0035 C   0  0  1  0  0  0
   -0.6930    1.6730    2.0035 C   0  0  1  0  0  0
   -1.6730    0.6930    2.0035 C   0  0  1  0  0  0
   -1.6730   -0.6930    2.0035 C   0  0  1  0  0  0
   -0.6930   -1.6730    2.0035 C   0  0  1  0  0  0
    0.6930   -1.6730    2.0035 C   0  0  2  0  0  0
    2.6437   -1.0951    2.0066 H   0  0  0  0  0  0
    2.6437    1.0951    2.0066 H   0  0  0  0  0  0
    1.0951    2.6437    2.0066 H   0  0  0  0  0  0
   -1.0951    2.6437    2.0066 H   0  0  0  0  0  0
   -2.6437    1.0951    2.0066 H   0  0  0  0  0  0
   -2.6437   -1.0951    2.0066 H   0  0  0  0  0  0
   -1.0951   -2.6437    2.0066 H   0  0  0  0  0  0
    1.0951   -2.6437    2.0066 H   0  0  0  0  0  0
    0.0000    0.0000    0.0000 Th  0  0  0  0  0  0
   -1.6730    0.6930   -2.0035 C   0  0  2  0  0  0
   -1.6730   -0.6930   -2.0035 C   0  0  1  0  0  0
   -0.6930   -1.6730   -2.0035 C   0  0  1  0  0  0
    0.6930   -1.6730   -2.0035 C   0  0  1  0  0  0
    1.6730   -0.6930   -2.0035 C   0  0  1  0  0  0
    1.6730    0.6930   -2.0035 C   0  0  1  0  0  0
    0.6930    1.6730   -2.0035 C   0  0  1  0  0  0
   -0.6930    1.6730   -2.0035 C   0  0  2  0  0  0
   -2.6437    1.0951   -2.0066 H   0  0  0  0  0  0
   -2.6437   -1.0951   -2.0066 H   0  0  0  0  0  0
   -1.0951   -2.6437   -2.0066 H   0  0  0  0  0  0
    1.0951   -2.6437   -2.0066 H   0  0  0  0  0  0
    2.6437   -1.0951   -2.0066 H   0  0  0  0  0  0
    2.6437    1.0951   -2.0066 H   0  0  0  0  0  0
    1.0951    2.6437   -2.0066 H   0  0  0  0  0  0
   -1.0951    2.6437   -2.0066 H   0  0  0  0  0  0
 29 21  1  0  0  0
 28 20  1  0  0  0
 27 19  1  0  0  0
 26 18  1  0  0  0
 25 33  1  0  0  0
 25 24  1  0  0  0
 25 17  1  0  0  0
 24 32  1  0  0  0
 24 23  1  0  0  0
 23 31  1  0  0  0
 22 30  1  0  0  0
 22 23  1  0  0  0
 21 22  1  0  0  0
 21 17  1  0  0  0
 20 21  1  0  0  0
 20 17  1  0  0  0
 19 18  1  0  0  0
 19 20  1  0  0  0
 19 17  1  0  0  0
 18 25  1  0  0  0
 18 17  1  0  0  0
 17 24  1  0  0  0
 17 22  1  0  0  0
 17  4  1  0  0  0
 17  8  1  0  0  0
 17 23  1  0  0  0
 17  3  1  0  0  0
 17  1  1  0  0  0
 17  2  1  0  0  0
 16  8  1  0  0  0
 15  7  1  0  0  0
 14  6  1  0  0  0
 13  5  1  0  0  0
  8  1  1  0  0  0
  7 17  1  0  0  0
  7  8  1  0  0  0
  6  7  1  0  0  0
  6  5  1  0  0  0
  6 17  1  0  0  0
  5  4  1  0  0  0
  5 17  1  0  0  0
  4 12  1  0  0  0
  4  3  1  0  0  0
  3 11  1  0  0  0
  3  2  1  0  0  0
  2 10  1  0  0  0
  1  9  1  0  0  0
  1  2  1  0  0  0
M  END
