c:/temp/sym/json/ethane-s.json
__Jmol-15_08012216153D 1   1.00000     0.00000     0
Jmol version 15.2.66  2021-02-10 09:12 EXTRACT: ({0:7})
  8  7  0  0  0  0            999 V2000
    0.0000    0.0000    0.7668 C   0  0  0  0  0  0
    0.0000    0.0000   -0.7668 C   0  0  0  0  0  0
   -0.5186   -0.8982    1.1331 H   0  0  0  0  0  0
    1.0371    0.0000    1.1331 H   0  0  0  0  0  0
   -0.5186    0.8982    1.1331 H   0  0  0  0  0  0
    0.5186   -0.8982   -1.1331 H   0  0  0  0  0  0
   -1.0371    0.0000   -1.1331 H   0  0  0  0  0  0
    0.5186    0.8982   -1.1331 H   0  0  0  0  0  0
  1  2  1  0  0  0
  1  3  1  0  0  0
  1  4  1  0  0  0
  1  5  1  0  0  0
  2  6  1  0  0  0
  2  7  1  0  0  0
  2  8  1  0  0  0
M  END
