c:/temp/sym/json/fe-c5h5n-6.json
__Jmol-15_08012216143D 1   1.00000     0.00000     0
Jmol version 15.2.66  2021-02-10 09:12 EXTRACT: ({0:66})
 67 72  0  0  0  0            999 V2000
    0.0000    1.7177    1.2146 N   0  0  0  0  0  0
    0.0000    0.0000    0.0000 Fe  0  0  0  0  0  0
    0.0000   -1.7177   -1.2146 N   0  0  0  0  0  0
    1.4875    0.8589   -1.2146 N   0  0  0  0  0  0
   -1.4875   -0.8589    1.2146 N   0  0  0  0  0  0
   -1.4876    0.8588   -1.2146 N   0  0  0  0  0  0
    1.4876   -0.8588    1.2146 N   0  0  0  0  0  0
   -3.4699   -2.0034    2.8332 C   0  0  0  0  0  0
   -1.1522   -1.6144    2.2831 C   0  0  0  0  0  0
   -2.7962   -0.6652    0.9408 C   0  0  0  0  0  0
   -3.8068   -1.2230    1.7296 C   0  0  0  0  0  0
   -2.1182   -2.1979    3.1083 C   0  0  0  0  0  0
    2.7962    0.6652   -0.9408 C   0  0  0  0  0  0
   -0.8220   -2.7542   -0.9408 C   0  0  0  0  0  0
    0.8220   -1.8050   -2.2831 C   0  0  0  0  0  0
   -0.8443   -3.9082   -1.7296 C   0  0  0  0  0  0
    0.8443   -2.9333   -3.1083 C   0  0  0  0  0  0
    3.4699   -2.0034    2.8331 C   0  0  0  0  0  0
    1.9742   -0.1906    2.2831 C   0  0  0  0  0  0
    1.9742   -2.0890    0.9407 C   0  0  0  0  0  0
    2.9625   -2.6853    1.7295 C   0  0  0  0  0  0
    2.9625   -0.7355    3.1082 C   0  0  0  0  0  0
   -1.9742    2.0890   -0.9407 C   0  0  0  0  0  0
    3.4699    2.0034   -2.8332 C   0  0  0  0  0  0
    1.1522    1.6144   -2.2831 C   0  0  0  0  0  0
    3.8068    1.2230   -1.7296 C   0  0  0  0  0  0
    2.1182    2.1979   -3.1083 C   0  0  0  0  0  0
    0.0000    4.0067    2.8332 C   0  0  0  0  0  0
   -0.8220    1.8050    2.2831 C   0  0  0  0  0  0
    0.8220    2.7542    0.9408 C   0  0  0  0  0  0
    0.8443    3.9082    1.7296 C   0  0  0  0  0  0
   -0.8443    2.9333    3.1083 C   0  0  0  0  0  0
   -2.9625    0.7355   -3.1082 C   0  0  0  0  0  0
   -1.9742    0.1906   -2.2831 C   0  0  0  0  0  0
   -3.4699    2.0034   -2.8331 C   0  0  0  0  0  0
    0.0000   -4.0067   -2.8332 C   0  0  0  0  0  0
   -2.9625    2.6853   -1.7295 C   0  0  0  0  0  0
   -4.2336   -2.4443    3.4567 H   0  0  0  0  0  0
   -0.1075   -1.7722    2.5062 H   0  0  0  0  0  0
   -3.0695   -0.0621    0.0878 H   0  0  0  0  0  0
   -4.8439   -1.0497    1.4844 H   0  0  0  0  0  0
   -1.8181   -2.7967    3.9550 H   0  0  0  0  0  0
    3.0695    0.0621   -0.0878 H   0  0  0  0  0  0
   -1.4810   -2.6893   -0.0879 H   0  0  0  0  0  0
    1.4810   -0.9792   -2.5062 H   0  0  0  0  0  0
   -1.5129   -4.7197   -1.4844 H   0  0  0  0  0  0
    1.5129   -2.9728   -3.9551 H   0  0  0  0  0  0
    4.2336   -2.4443    3.4567 H   0  0  0  0  0  0
    1.5885    0.7930    2.5063 H   0  0  0  0  0  0
    1.5885   -2.6273    0.0878 H   0  0  0  0  0  0
    3.3311   -3.6701    1.4844 H   0  0  0  0  0  0
    3.3310   -0.1762    3.9550 H   0  0  0  0  0  0
   -1.5885    2.6273   -0.0878 H   0  0  0  0  0  0
    4.2336    2.4443   -3.4567 H   0  0  0  0  0  0
    0.1075    1.7722   -2.5062 H   0  0  0  0  0  0
    4.8439    1.0497   -1.4844 H   0  0  0  0  0  0
    1.8181    2.7967   -3.9550 H   0  0  0  0  0  0
    0.0000    4.8885    3.4567 H   0  0  0  0  0  0
   -1.4810    0.9792    2.5062 H   0  0  0  0  0  0
    1.4810    2.6893    0.0879 H   0  0  0  0  0  0
    1.5129    4.7197    1.4844 H   0  0  0  0  0  0
   -1.5129    2.9728    3.9551 H   0  0  0  0  0  0
   -3.3310    0.1762   -3.9550 H   0  0  0  0  0  0
   -1.5885   -0.7930   -2.5063 H   0  0  0  0  0  0
   -4.2336    2.4443   -3.4567 H   0  0  0  0  0  0
    0.0000   -4.8885   -3.4567 H   0  0  0  0  0  0
   -3.3311    3.6701   -1.4844 H   0  0  0  0  0  0
  1  2  1  0  0  0
  1 29  1  0  0  0
  1 30  1  0  0  0
  2  3  1  0  0  0
  2  4  1  0  0  0
  2  5  1  0  0  0
  2  6  1  0  0  0
  2  7  1  0  0  0
  3 14  1  0  0  0
  3 15  1  0  0  0
  4 13  1  0  0  0
  4 25  1  0  0  0
  5  9  1  0  0  0
  5 10  1  0  0  0
  6 23  1  0  0  0
  6 34  1  0  0  0
  7 19  1  0  0  0
  7 20  1  0  0  0
  8 11  1  0  0  0
  8 12  1  0  0  0
  8 38  1  0  0  0
  9 12  1  0  0  0
  9 39  1  0  0  0
 10 11  1  0  0  0
 10 40  1  0  0  0
 11 41  1  0  0  0
 12 42  1  0  0  0
 13 26  1  0  0  0
 13 43  1  0  0  0
 14 16  1  0  0  0
 14 44  1  0  0  0
 15 17  1  0  0  0
 15 45  1  0  0  0
 16 36  1  0  0  0
 16 46  1  0  0  0
 17 36  1  0  0  0
 17 47  1  0  0  0
 18 21  1  0  0  0
 18 22  1  0  0  0
 18 48  1  0  0  0
 19 22  1  0  0  0
 19 49  1  0  0  0
 20 21  1  0  0  0
 20 50  1  0  0  0
 21 51  1  0  0  0
 22 52  1  0  0  0
 23 37  1  0  0  0
 23 53  1  0  0  0
 24 26  1  0  0  0
 24 27  1  0  0  0
 24 54  1  0  0  0
 25 27  1  0  0  0
 25 55  1  0  0  0
 26 56  1  0  0  0
 27 57  1  0  0  0
 28 31  1  0  0  0
 28 32  1  0  0  0
 28 58  1  0  0  0
 29 32  1  0  0  0
 29 59  1  0  0  0
 30 31  1  0  0  0
 30 60  1  0  0  0
 31 61  1  0  0  0
 32 62  1  0  0  0
 33 34  1  0  0  0
 33 35  1  0  0  0
 33 63  1  0  0  0
 34 64  1  0  0  0
 35 37  1  0  0  0
 35 65  1  0  0  0
 36 66  1  0  0  0
 37 67  1  0  0  0
M  END
