c:/temp/sym/json/fe-oxalato.json
__Jmol-15_08012216153D 1   1.00000     0.00000     0
Jmol version 15.2.66  2021-02-10 09:12 EXTRACT: ({0:18})
 19 21  0  0  0  0            999 V2000
    0.0000    0.0000    0.0000 Fe  0  0  0  0  0  0
   -2.4956    0.8470    0.7157 C   0  0  0  0  0  0
   -1.9814    1.7378   -0.7156 C   0  0  0  0  0  0
    1.9814    1.7379    0.7157 C   0  0  0  0  0  0
    2.4957    0.8471   -0.7157 C   0  0  0  0  0  0
    0.5144   -2.5848    0.7157 C   0  0  0  0  0  0
   -0.5143   -2.5848   -0.7156 C   0  0  0  0  0  0
   -1.6406    0.0000    1.1604 O   0  0  0  0  0  0
   -3.5810    1.0785    1.1965 O   0  0  0  0  0  0
   -0.8204    1.4207   -1.1603 O   0  0  0  0  0  0
   -2.7246    2.5620   -1.1964 O   0  0  0  0  0  0
    0.8203    1.4207    1.1603 O   0  0  0  0  0  0
    2.7246    2.5621    1.1965 O   0  0  0  0  0  0
    1.6405    0.0000   -1.1605 O   0  0  0  0  0  0
    3.5810    1.0786   -1.1965 O   0  0  0  0  0  0
    0.8202   -1.4208    1.1602 O   0  0  0  0  0  0
    0.8567   -3.6405    1.1965 O   0  0  0  0  0  0
   -0.8204   -1.4208   -1.1605 O   0  0  0  0  0  0
   -0.8564   -3.6405   -1.1963 O   0  0  0  0  0  0
  1  8  1  0  0  0
  1 10  1  0  0  0
  1 12  1  0  0  0
  1 14  1  0  0  0
  1 16  1  0  0  0
  1 18  1  0  0  0
  2  3  1  0  0  0
  2  8  1  0  0  0
  2  9  2  0  0  0
  3 10  1  0  0  0
  3 11  2  0  0  0
  4  5  1  0  0  0
  4 12  1  0  0  0
  4 13  2  0  0  0
  5 14  1  0  0  0
  5 15  2  0  0  0
  6  7  1  0  0  0
  6 16  1  0  0  0
  6 17  2  0  0  0
  7 18  1  0  0  0
  7 19  2  0  0  0
M  END
