c:/temp/sym/json/ferrocene-e.json
__Jmol-15_08012216153D 1   1.00000     0.00000     0
Jmol version 15.2.66  2021-02-10 09:12 EXTRACT: ({0:20})
 21 30  0  0  0  0            999 V2000
    0.0000    0.0000    0.0000 Fe  0  0  0  0  0  0
    0.0000    1.2155   -1.6579 C   0  0  2  0  0  0
    0.7145   -0.9834   -1.6579 C   0  0  1  0  0  0
    1.1560    0.3757   -1.6579 C   0  0  2  0  0  0
    0.0000    1.2155    1.6579 C   0  0  1  0  0  0
    0.7144   -0.9833    1.6579 C   0  0  2  0  0  0
    1.1559    0.3756    1.6579 C   0  0  1  0  0  0
    0.0000    2.2955   -1.6583 H   0  0  0  0  0  0
    1.3493   -1.8572   -1.6583 H   0  0  0  0  0  0
    2.1832    0.7094   -1.6582 H   0  0  0  0  0  0
    0.0000    2.2955    1.6583 H   0  0  0  0  0  0
    1.3492   -1.8571    1.6583 H   0  0  0  0  0  0
    2.1831    0.7093    1.6583 H   0  0  0  0  0  0
   -0.7144   -0.9833   -1.6579 C   0  0  2  0  0  0
   -1.1560    0.3757   -1.6579 C   0  0  1  0  0  0
   -0.7144   -0.9834    1.6579 C   0  0  1  0  0  0
   -1.1560    0.3756    1.6579 C   0  0  2  0  0  0
   -1.3492   -1.8571   -1.6583 H   0  0  0  0  0  0
   -2.1831    0.7094   -1.6583 H   0  0  0  0  0  0
   -1.3493   -1.8571    1.6582 H   0  0  0  0  0  0
   -2.1831    0.7093    1.6583 H   0  0  0  0  0  0
  1  2  1  0  0  0
  1  3  1  0  0  0
  1  4  1  0  0  0
  1  5  1  0  0  0
  1  6  1  0  0  0
  1  7  1  0  0  0
  1 14  1  0  0  0
  1 15  1  0  0  0
  1 16  1  0  0  0
  1 17  1  0  0  0
  2  4  1  0  0  0
  2  8  1  0  0  0
  2 15  1  0  0  0
  3  4  1  0  0  0
  3  9  1  0  0  0
  3 14  1  0  0  0
  4 10  1  0  0  0
  5  7  1  0  0  0
  5 11  1  0  0  0
  5 17  1  0  0  0
  6  7  1  0  0  0
  6 12  1  0  0  0
  6 16  1  0  0  0
  7 13  1  0  0  0
 14 15  1  0  0  0
 14 18  1  0  0  0
 15 19  1  0  0  0
 16 17  1  0  0  0
 16 20  1  0  0  0
 17 21  1  0  0  0
M  END
