c:/temp/sym/json/fopcao.json
__Jmol-15_08012216153D 1   1.00000     0.00000     0
Jmol version 15.2.66  2021-02-10 09:12 EXTRACT: ({0:27})
 28 28  0  0  0  0            999 V2000
    0.0000   -3.1532    0.0000 S   0  0  0  0  0  0
   -3.1532    0.0000    0.0000 S   0  0  0  0  0  0
    0.0000    3.1532    0.0000 S   0  0  0  0  0  0
    3.1532    0.0000    0.0000 S   0  0  0  0  0  0
   -1.2870   -2.0010   -0.5629 C   0  0  2  0  0  0
   -2.0011   -1.2870    0.5630 C   0  0  2  0  0  0
   -2.0010    1.2870   -0.5630 C   0  0  2  0  0  0
   -1.2870    2.0010    0.5630 C   0  0  2  0  0  0
    1.2870    2.0009   -0.5630 C   0  0  2  0  0  0
    2.0010    1.2870    0.5630 C   0  0  2  0  0  0
    2.0010   -1.2870   -0.5630 C   0  0  2  0  0  0
    1.2870   -2.0010    0.5630 C   0  0  2  0  0  0
   -1.9362   -2.4961   -1.0677 H   0  0  0  0  0  0
   -0.8779   -1.3422   -1.1281 H   0  0  0  0  0  0
   -2.4962   -1.9362    1.0676 H   0  0  0  0  0  0
   -1.3422   -0.8778    1.1282 H   0  0  0  0  0  0
   -2.4961    1.9362   -1.0676 H   0  0  0  0  0  0
   -1.3422    0.8778   -1.1281 H   0  0  0  0  0  0
   -1.9361    2.4962    1.0677 H   0  0  0  0  0  0
   -0.8778    1.3423    1.1282 H   0  0  0  0  0  0
    1.9362    2.4961   -1.0676 H   0  0  0  0  0  0
    0.8778    1.3422   -1.1281 H   0  0  0  0  0  0
    2.4962    1.9362    1.0677 H   0  0  0  0  0  0
    1.3422    0.8778    1.1281 H   0  0  0  0  0  0
    2.4962   -1.9362   -1.0677 H   0  0  0  0  0  0
    1.3422   -0.8778   -1.1282 H   0  0  0  0  0  0
    1.9362   -2.4962    1.0676 H   0  0  0  0  0  0
    0.8779   -1.3422    1.1282 H   0  0  0  0  0  0
  1  5  1  0  0  0
  1 12  1  0  0  0
  2  6  1  0  0  0
  2  7  1  0  0  0
  3  8  1  0  0  0
  3  9  1  0  0  0
  4 10  1  0  0  0
  4 11  1  0  0  0
  5  6  1  0  0  0
  5 13  1  0  0  0
  5 14  1  0  0  0
  6 15  1  0  0  0
  6 16  1  0  0  0
  7  8  1  0  0  0
  7 17  1  0  0  0
  7 18  1  0  0  0
  8 19  1  0  0  0
  8 20  1  0  0  0
  9 10  1  0  0  0
  9 21  1  0  0  0
  9 22  1  0  0  0
 10 23  1  0  0  0
 10 24  1  0  0  0
 11 12  1  0  0  0
 11 25  1  0  0  0
 11 26  1  0  0  0
 12 27  1  0  0  0
 12 28  1  0  0  0
M  END
