c:/temp/sym/json/genfag.json
__Jmol-15_08012216153D 1   1.00000     0.00000     0
Jmol version 15.2.66  2021-02-10 09:12 EXTRACT: ({0:59})
 60 60  0  0  0  0            999 V2000
    1.2142   -0.7011    0.0000 C   0  0  0  0  0  0
    1.2142    0.7011    0.0000 C   0  0  0  0  0  0
    0.0000   -1.4022    0.0000 C   0  0  0  0  0  0
    2.4958   -1.3563    0.0000 N   0  0  0  0  0  0
    2.4224    1.4834    0.0000 N   0  0  0  0  0  0
    0.0734   -2.8397    0.0000 N   0  0  0  0  0  0
    2.8047   -2.1059    1.2017 C   0  0  0  0  0  0
    2.8047   -2.1059   -1.2015 C   0  0  0  0  0  0
    3.2259    1.3761    1.2016 C   0  0  0  0  0  0
    3.2260    1.3761   -1.2015 C   0  0  0  0  0  0
   -0.4212   -3.4820   -1.2015 C   0  0  0  0  0  0
   -0.4213   -3.4820    1.2016 C   0  0  0  0  0  0
    3.7493   -2.2310    1.2675 H   0  0  0  0  0  0
    2.3745   -2.9571    1.1672 H   0  0  0  0  0  0
    2.4952   -1.6251    1.9666 H   0  0  0  0  0  0
    2.3745   -2.9572   -1.1670 H   0  0  0  0  0  0
    3.7493   -2.2311   -1.2674 H   0  0  0  0  0  0
    2.4954   -1.6252   -1.9665 H   0  0  0  0  0  0
    3.8066    2.1316    1.2675 H   0  0  0  0  0  0
    3.7480    0.5779    1.1671 H   0  0  0  0  0  0
    2.6549    1.3485    1.9666 H   0  0  0  0  0  0
    3.7481    0.5778   -1.1671 H   0  0  0  0  0  0
    3.8066    2.1315   -1.2675 H   0  0  0  0  0  0
    2.6549    1.3484   -1.9666 H   0  0  0  0  0  0
   -0.0574   -4.3626   -1.2674 H   0  0  0  0  0  0
   -1.3735   -3.5350   -1.1670 H   0  0  0  0  0  0
   -0.1596   -2.9736   -1.9666 H   0  0  0  0  0  0
   -0.0573   -4.3626    1.2675 H   0  0  0  0  0  0
   -0.1596   -2.9735    1.9666 H   0  0  0  0  0  0
   -1.3736   -3.5350    1.1671 H   0  0  0  0  0  0
    0.0000    1.4022    0.0000 C   0  0  0  0  0  0
   -1.2142   -0.7011    0.0000 C   0  0  0  0  0  0
   -1.2142    0.7011    0.0000 C   0  0  0  0  0  0
   -0.0734    2.8397    0.0000 N   0  0  0  0  0  0
   -2.4224   -1.4834    0.0000 N   0  0  0  0  0  0
   -2.4958    1.3563    0.0000 N   0  0  0  0  0  0
    0.4212    3.4820    1.2015 C   0  0  0  0  0  0
    0.4213    3.4820   -1.2016 C   0  0  0  0  0  0
   -3.2259   -1.3761   -1.2016 C   0  0  0  0  0  0
   -3.2260   -1.3761    1.2015 C   0  0  0  0  0  0
   -2.8047    2.1059   -1.2017 C   0  0  0  0  0  0
   -2.8047    2.1059    1.2015 C   0  0  0  0  0  0
    0.0574    4.3626    1.2674 H   0  0  0  0  0  0
    1.3735    3.5350    1.1670 H   0  0  0  0  0  0
    0.1596    2.9736    1.9666 H   0  0  0  0  0  0
    0.0573    4.3626   -1.2675 H   0  0  0  0  0  0
    0.1596    2.9735   -1.9666 H   0  0  0  0  0  0
    1.3736    3.5350   -1.1671 H   0  0  0  0  0  0
   -3.8066   -2.1316   -1.2675 H   0  0  0  0  0  0
   -3.7480   -0.5779   -1.1671 H   0  0  0  0  0  0
   -2.6549   -1.3485   -1.9666 H   0  0  0  0  0  0
   -3.7481   -0.5778    1.1671 H   0  0  0  0  0  0
   -3.8066   -2.1315    1.2675 H   0  0  0  0  0  0
   -2.6549   -1.3484    1.9666 H   0  0  0  0  0  0
   -3.7493    2.2310   -1.2675 H   0  0  0  0  0  0
   -2.3745    2.9571   -1.1672 H   0  0  0  0  0  0
   -2.4952    1.6251   -1.9666 H   0  0  0  0  0  0
   -2.3745    2.9572    1.1670 H   0  0  0  0  0  0
   -3.7493    2.2311    1.2674 H   0  0  0  0  0  0
   -2.4954    1.6252    1.9665 H   0  0  0  0  0  0
  1  2  1  0  0  0
  1  3  1  0  0  0
  1  4  1  0  0  0
  2  5  1  0  0  0
  2 31  1  0  0  0
  3  6  1  0  0  0
  3 32  1  0  0  0
  4  7  1  0  0  0
  4  8  1  0  0  0
  5  9  1  0  0  0
  5 10  1  0  0  0
  6 11  1  0  0  0
  6 12  1  0  0  0
  7 13  1  0  0  0
  7 14  1  0  0  0
  7 15  1  0  0  0
  8 16  1  0  0  0
  8 17  1  0  0  0
  8 18  1  0  0  0
  9 19  1  0  0  0
  9 20  1  0  0  0
  9 21  1  0  0  0
 10 22  1  0  0  0
 10 23  1  0  0  0
 10 24  1  0  0  0
 11 25  1  0  0  0
 11 26  1  0  0  0
 11 27  1  0  0  0
 12 28  1  0  0  0
 12 29  1  0  0  0
 12 30  1  0  0  0
 31 33  1  0  0  0
 31 34  1  0  0  0
 32 33  1  0  0  0
 32 35  1  0  0  0
 33 36  1  0  0  0
 34 37  1  0  0  0
 34 38  1  0  0  0
 35 39  1  0  0  0
 35 40  1  0  0  0
 36 41  1  0  0  0
 36 42  1  0  0  0
 37 43  1  0  0  0
 37 44  1  0  0  0
 37 45  1  0  0  0
 38 46  1  0  0  0
 38 47  1  0  0  0
 38 48  1  0  0  0
 39 49  1  0  0  0
 39 50  1  0  0  0
 39 51  1  0  0  0
 40 52  1  0  0  0
 40 53  1  0  0  0
 40 54  1  0  0  0
 41 55  1  0  0  0
 41 56  1  0  0  0
 41 57  1  0  0  0
 42 58  1  0  0  0
 42 59  1  0  0  0
 42 60  1  0  0  0
M  END
