c:/temp/sym/json/h2o2.json
__Jmol-15_08012216153D 1   1.00000     0.00000     0
Jmol version 15.2.66  2021-02-10 09:12 EXTRACT: ({0:3})
  4  3  0  0  0  0            999 V2000
   -0.6080   -0.4003    0.2459 O   0  0  0  0  0  0
   -1.1980    0.1980   -0.2459 H   0  0  0  0  0  0
    0.6080    0.4003    0.2459 O   0  0  0  0  0  0
    1.1980   -0.1980   -0.2459 H   0  0  0  0  0  0
  3  4  1  0  0  0
  2  1  1  0  0  0
  1  3  1  0  0  0
M  END
