c:/temp/sym/json/me4-cot.json
__Jmol-15_08012216153D 1   1.00000     0.00000     0
Jmol version 15.2.66  2021-02-10 09:12 EXTRACT: ({0:27})
 28 28  0  0  0  0            999 V2000
    0.0000   -1.6581    0.4319 C   0  0  0  0  0  0
    0.0000    1.6581    0.4320 C   0  0  0  0  0  0
   -1.6581    0.0000   -0.4320 C   0  0  0  0  0  0
   -1.2269   -1.1126    0.4077 C   0  0  0  0  0  0
    1.6581    0.0000   -0.4319 C   0  0  0  0  0  0
    1.2269    1.1126    0.4078 C   0  0  0  0  0  0
   -1.1126    1.2269   -0.4078 C   0  0  0  0  0  0
   -0.3096    2.8182    1.3099 C   0  0  0  0  0  0
   -2.8182   -0.3095   -1.3100 C   0  0  0  0  0  0
   -2.0278   -1.5292    1.0451 H   0  0  0  0  0  0
    2.8183    0.3096   -1.3100 C   0  0  0  0  0  0
    2.0278    1.5292    1.0451 H   0  0  0  0  0  0
   -1.5291    2.0278   -1.0451 H   0  0  0  0  0  0
    1.1125   -1.2269   -0.4077 C   0  0  0  0  0  0
    1.5292   -2.0278   -1.0451 H   0  0  0  0  0  0
    0.3095   -2.8182    1.3100 C   0  0  0  0  0  0
   -0.6664    3.6817    0.6960 H   0  0  0  0  0  0
    0.5874    3.1433    1.8913 H   0  0  0  0  0  0
   -1.1189    2.5436    2.0316 H   0  0  0  0  0  0
   -3.6817   -0.6664   -0.6960 H   0  0  0  0  0  0
   -2.5436   -1.1189   -2.0316 H   0  0  0  0  0  0
   -3.1433    0.5874   -1.8913 H   0  0  0  0  0  0
    3.6817    0.6665   -0.6960 H   0  0  0  0  0  0
    2.5437    1.1189   -2.0314 H   0  0  0  0  0  0
    3.1433   -0.5874   -1.8912 H   0  0  0  0  0  0
    0.6664   -3.6817    0.6960 H   0  0  0  0  0  0
   -0.5874   -3.1433    1.8911 H   0  0  0  0  0  0
    1.1189   -2.5437    2.0315 H   0  0  0  0  0  0
  1  4  2  0  0  0
  1 14  1  0  0  0
  1 16  1  0  0  0
  2  6  2  0  0  0
  2  7  1  0  0  0
  2  8  1  0  0  0
  3  4  1  0  0  0
  3  7  2  0  0  0
  3  9  1  0  0  0
  4 10  1  0  0  0
  5  6  1  0  0  0
  5 11  1  0  0  0
  5 14  2  0  0  0
  6 12  1  0  0  0
  7 13  1  0  0  0
  8 17  1  0  0  0
  8 18  1  0  0  0
  8 19  1  0  0  0
  9 20  1  0  0  0
  9 21  1  0  0  0
  9 22  1  0  0  0
 11 23  1  0  0  0
 11 24  1  0  0  0
 11 25  1  0  0  0
 14 15  1  0  0  0
 16 26  1  0  0  0
 16 27  1  0  0  0
 16 28  1  0  0  0
M  END
