c:/temp/sym/json/n2h4.json
__Jmol-15_08012216153D 1   1.00000     0.00000     0
Jmol version 15.2.66  2021-02-10 09:12 EXTRACT: ({0:5})
  6  5  0  0  0  0            999 V2000
    0.0003   -0.7250   -0.2750 N   0  0  0  0  0  0
    0.0003    0.7250   -0.2750 N   0  0  0  0  0  0
    0.9528   -1.0615   -0.2738 H   0  0  0  0  0  0
   -0.4772   -1.0615    0.5494 H   0  0  0  0  0  0
   -0.9522    1.0615   -0.2761 H   0  0  0  0  0  0
    0.4758    1.0615    0.5506 H   0  0  0  0  0  0
  1  2  1  0  0  0
  1  3  1  0  0  0
  1  4  1  0  0  0
  2  5  1  0  0  0
  2  6  1  0  0  0
M  END
