c:/temp/sym/json/n2o4.json
__Jmol-15_08012216153D 1   1.00000     0.00000     0
Jmol version 15.2.66  2021-02-10 09:12 EXTRACT: ({0:5})
  6  5  0  0  0  0            999 V2000
    0.8915    0.0000    0.0000 N   0  0  0  0  0  0
    1.3526    1.1037    0.0000 O   0  0  0  0  0  0
    1.3526   -1.1037    0.0000 O   0  0  0  0  0  0
   -0.8915    0.0000    0.0000 N   0  0  0  0  0  0
   -1.3526    1.1037    0.0000 O   0  0  0  0  0  0
   -1.3526   -1.1037    0.0000 O   0  0  0  0  0  0
  6  4  1  0  0  0
  5  4  1  0  0  0
  4  1  1  0  0  0
  1  3  1  0  0  0
  1  2  1  0  0  0
M  END
