c:/temp/sym/json/nelmum.json
__Jmol-15_08012216143D 1   1.00000     0.00000     0
Jmol version 15.2.66  2021-02-10 09:12 EXTRACT: ({0:67})
 68 72  0  0  0  0            999 V2000
    0.0000    0.0000    0.0000 Yb  0  0  0  0  0  0
    0.0000    0.0000    2.9362 I   0  0  0  0  0  0
   -1.3819   -1.9021    0.0000 O   0  0  0  0  0  0
   -2.2360    0.7265    0.0000 O   0  0  0  0  0  0
    0.0000    2.3511    0.0000 O   0  0  0  0  0  0
   -1.4167   -2.9372    1.0386 C   0  0  2  0  0  0
   -1.8514   -2.5998    1.8551 H   0  0  0  0  0  0
   -0.5065   -3.2336    1.2669 H   0  0  0  0  0  0
   -2.2036   -4.0634    0.4540 C   0  0  2  0  0  0
   -2.6687   -4.5727    1.1582 H   0  0  0  0  0  0
   -1.6273   -4.6735   -0.0586 H   0  0  0  0  0  0
   -3.2312    0.4397    1.0386 C   0  0  2  0  0  0
   -3.0447    0.9574    1.8551 H   0  0  0  0  0  0
   -3.2319   -0.5176    1.2669 H   0  0  0  0  0  0
   -4.5455    0.8401    0.4540 C   0  0  2  0  0  0
   -5.1736    1.1250    1.1582 H   0  0  0  0  0  0
   -4.9476    0.1036   -0.0584 H   0  0  0  0  0  0
   -4.1713    1.9921   -0.4540 C   0  0  1  0  0  0
   -4.8469    2.1307   -1.1581 H   0  0  0  0  0  0
   -4.0636    2.8243    0.0585 H   0  0  0  0  0  0
   -2.8726    1.5435   -1.0386 C   0  0  2  0  0  0
   -3.0259    1.0150   -1.8551 H   0  0  0  0  0  0
   -2.3105    2.3183   -1.2668 H   0  0  0  0  0  0
   -0.5803    3.2090    1.0385 C   0  0  2  0  0  0
   -0.0303    3.1915    1.8551 H   0  0  0  0  0  0
   -1.4910    2.9137    1.2669 H   0  0  0  0  0  0
   -0.6056    4.5826    0.4540 C   0  0  1  0  0  0
   -1.4304    4.7375   -0.0584 H   0  0  0  0  0  0
   -0.5287    5.2681    1.1583 H   0  0  0  0  0  0
    0.6056    4.5826   -0.4540 C   0  0  2  0  0  0
    1.4303    4.7375    0.0584 H   0  0  0  0  0  0
    0.5286    5.2680   -1.1582 H   0  0  0  0  0  0
    0.5803    3.2089   -1.0386 C   0  0  2  0  0  0
    0.0303    3.1915   -1.8551 H   0  0  0  0  0  0
    1.4909    2.9138   -1.2669 H   0  0  0  0  0  0
    0.0000    0.0000   -2.9362 I   0  0  0  0  0  0
   -3.1835   -3.3515   -0.4539 C   0  0  1  0  0  0
   -2.3556   -2.2551   -1.0385 C   0  0  2  0  0  0
   -1.9004   -2.5643   -1.8551 H   0  0  0  0  0  0
   -2.9189   -1.4810   -1.2668 H   0  0  0  0  0  0
   -3.5241   -3.9512   -1.1582 H   0  0  0  0  0  0
   -3.9418   -2.9920    0.0585 H   0  0  0  0  0  0
    1.3819   -1.9020    0.0000 O   0  0  0  0  0  0
    1.4168   -2.9372   -1.0385 C   0  0  2  0  0  0
    1.8515   -2.5998   -1.8551 H   0  0  0  0  0  0
    0.5065   -3.2337   -1.2668 H   0  0  0  0  0  0
    2.2037   -4.0633   -0.4540 C   0  0  2  0  0  0
    2.6688   -4.5726   -1.1582 H   0  0  0  0  0  0
    1.6275   -4.6734    0.0584 H   0  0  0  0  0  0
    3.1835   -3.3514    0.4539 C   0  0  1  0  0  0
    3.5243   -3.9511    1.1582 H   0  0  0  0  0  0
    3.9418   -2.9919   -0.0586 H   0  0  0  0  0  0
    2.3557   -2.2550    1.0386 C   0  0  2  0  0  0
    1.9004   -2.5642    1.8551 H   0  0  0  0  0  0
    2.9189   -1.4809    1.2668 H   0  0  0  0  0  0
    2.2360    0.7265    0.0000 O   0  0  0  0  0  0
    3.2313    0.4398   -1.0385 C   0  0  2  0  0  0
    3.0447    0.9575   -1.8551 H   0  0  0  0  0  0
    3.2319   -0.5175   -1.2669 H   0  0  0  0  0  0
    4.5455    0.8402   -0.4540 C   0  0  1  0  0  0
    4.9476    0.1037    0.0585 H   0  0  0  0  0  0
    5.1736    1.1252   -1.1582 H   0  0  0  0  0  0
    4.1712    1.9921    0.4539 C   0  0  2  0  0  0
    4.0636    2.8243   -0.0585 H   0  0  0  0  0  0
    4.8468    2.1307    1.1582 H   0  0  0  0  0  0
    2.8726    1.5436    1.0385 C   0  0  2  0  0  0
    3.0260    1.0151    1.8550 H   0  0  0  0  0  0
    2.3105    2.3185    1.2668 H   0  0  0  0  0  0
  1  2  1  0  0  0
  1  3  1  0  0  0
  1  4  1  0  0  0
  1  5  1  0  0  0
  1 36  1  0  0  0
  1 43  1  0  0  0
  1 56  1  0  0  0
  3  6  1  0  0  0
  3 38  1  0  0  0
  4 12  1  0  0  0
  4 21  1  0  0  0
  5 24  1  0  0  0
  5 33  1  0  0  0
  6  7  1  0  0  0
  6  8  1  0  0  0
  6  9  1  0  0  0
  9 10  1  0  0  0
  9 11  1  0  0  0
  9 37  1  0  0  0
 12 13  1  0  0  0
 12 14  1  0  0  0
 12 15  1  0  0  0
 15 16  1  0  0  0
 15 17  1  0  0  0
 15 18  1  0  0  0
 18 19  1  0  0  0
 18 20  1  0  0  0
 18 21  1  0  0  0
 21 22  1  0  0  0
 21 23  1  0  0  0
 24 25  1  0  0  0
 24 26  1  0  0  0
 24 27  1  0  0  0
 27 28  1  0  0  0
 27 29  1  0  0  0
 27 30  1  0  0  0
 30 31  1  0  0  0
 30 32  1  0  0  0
 30 33  1  0  0  0
 33 34  1  0  0  0
 33 35  1  0  0  0
 37 38  1  0  0  0
 37 41  1  0  0  0
 37 42  1  0  0  0
 38 39  1  0  0  0
 38 40  1  0  0  0
 43 44  1  0  0  0
 43 53  1  0  0  0
 44 45  1  0  0  0
 44 46  1  0  0  0
 44 47  1  0  0  0
 47 48  1  0  0  0
 47 49  1  0  0  0
 47 50  1  0  0  0
 50 51  1  0  0  0
 50 52  1  0  0  0
 50 53  1  0  0  0
 53 54  1  0  0  0
 53 55  1  0  0  0
 56 57  1  0  0  0
 56 66  1  0  0  0
 57 58  1  0  0  0
 57 59  1  0  0  0
 57 60  1  0  0  0
 60 61  1  0  0  0
 60 62  1  0  0  0
 60 63  1  0  0  0
 63 64  1  0  0  0
 63 65  1  0  0  0
 63 66  1  0  0  0
 66 67  1  0  0  0
 66 68  1  0  0  0
M  END
