c:/temp/sym/json/ocmsio.json
__Jmol-15_08012216143D 1   1.00000     0.00000     0
Jmol version 15.2.66  2021-02-10 09:12 EXTRACT: ({0:51})
 52 56  0  0  0  0            999 V2000
    1.5666   -1.5665    1.5665 Si  0  0  1  0  0  0
   -1.5664   -1.5665    1.5665 Si  0  0  2  0  0  0
    0.0001   -1.8734    1.8734 O   0  0  0  0  0  0
   -1.8733    0.0000    1.8734 O   0  0  0  0  0  0
    2.6260   -2.6259    2.6259 C   0  0  0  0  0  0
    2.4381   -3.5687    2.4379 H   0  0  0  0  0  0
   -2.6259   -2.6260    2.6261 C   0  0  0  0  0  0
   -2.4378   -2.4380    3.5688 H   0  0  0  0  0  0
   -2.4379   -3.5687    2.4381 H   0  0  0  0  0  0
   -3.5686   -2.4379    2.4381 H   0  0  0  0  0  0
   -1.5666    1.5665   -1.5665 Si  0  0  2  0  0  0
   -1.5664    1.5665    1.5665 Si  0  0  2  0  0  0
   -1.5665   -1.5665   -1.5664 Si  0  0  2  0  0  0
    1.5664   -1.5665   -1.5665 Si  0  0  1  0  0  0
    1.5665    1.5665    1.5664 Si  0  0  1  0  0  0
    1.5664    1.5665   -1.5665 Si  0  0  1  0  0  0
   -1.8734    1.8734    0.0001 O   0  0  0  0  0  0
   -1.8735    0.0000   -1.8733 O   0  0  0  0  0  0
    1.8734   -1.8734   -0.0001 O   0  0  0  0  0  0
    1.8735    0.0000    1.8733 O   0  0  0  0  0  0
   -0.0001    1.8734   -1.8734 O   0  0  0  0  0  0
   -1.8734   -1.8734    0.0001 O   0  0  0  0  0  0
   -0.0001   -1.8734   -1.8734 O   0  0  0  0  0  0
    1.8734    1.8734   -0.0001 O   0  0  0  0  0  0
    1.8733    0.0000   -1.8734 O   0  0  0  0  0  0
    0.0001    1.8734    1.8734 O   0  0  0  0  0  0
   -2.6260    2.6259   -2.6259 C   0  0  0  0  0  0
   -3.5688    2.4380   -2.4378 H   0  0  0  0  0  0
   -2.4381    2.4380   -3.5686 H   0  0  0  0  0  0
   -2.4381    3.5687   -2.4379 H   0  0  0  0  0  0
    3.5688   -2.4380    2.4378 H   0  0  0  0  0  0
    2.4381   -2.4380    3.5686 H   0  0  0  0  0  0
    2.6259   -2.6260   -2.6261 C   0  0  0  0  0  0
    2.6259    2.6260   -2.6261 C   0  0  0  0  0  0
   -2.6259    2.6260    2.6261 C   0  0  0  0  0  0
    2.6261    2.6260    2.6258 C   0  0  0  0  0  0
   -2.6261   -2.6260   -2.6258 C   0  0  0  0  0  0
    2.4379   -3.5687   -2.4380 H   0  0  0  0  0  0
    2.4378    2.4380   -3.5688 H   0  0  0  0  0  0
   -2.4379    3.5687    2.4380 H   0  0  0  0  0  0
    3.5688    2.4380    2.4379 H   0  0  0  0  0  0
   -3.5688   -2.4380   -2.4379 H   0  0  0  0  0  0
    3.5686   -2.4380   -2.4381 H   0  0  0  0  0  0
    2.4379    3.5687   -2.4381 H   0  0  0  0  0  0
   -3.5686    2.4380    2.4381 H   0  0  0  0  0  0
    2.4381    2.4380    3.5686 H   0  0  0  0  0  0
   -2.4381   -2.4380   -3.5686 H   0  0  0  0  0  0
    2.4379   -2.4380   -3.5687 H   0  0  0  0  0  0
    3.5686    2.4379   -2.4381 H   0  0  0  0  0  0
   -2.4379    2.4380    3.5687 H   0  0  0  0  0  0
    2.4380    3.5687    2.4379 H   0  0  0  0  0  0
   -2.4380   -3.5687   -2.4379 H   0  0  0  0  0  0
  1  3  1  0  0  0
  1  5  1  0  0  0
  1 19  1  0  0  0
  1 20  1  0  0  0
  2  3  1  0  0  0
  2  4  1  0  0  0
  2  7  1  0  0  0
  2 22  1  0  0  0
  4 12  1  0  0  0
  5  6  1  0  0  0
  5 31  1  0  0  0
  5 32  1  0  0  0
  7  8  1  0  0  0
  7  9  1  0  0  0
  7 10  1  0  0  0
 11 17  1  0  0  0
 11 18  1  0  0  0
 11 21  1  0  0  0
 11 27  1  0  0  0
 12 17  1  0  0  0
 12 26  1  0  0  0
 12 35  1  0  0  0
 13 18  1  0  0  0
 13 22  1  0  0  0
 13 23  1  0  0  0
 13 37  1  0  0  0
 14 19  1  0  0  0
 14 23  1  0  0  0
 14 25  1  0  0  0
 14 33  1  0  0  0
 15 20  1  0  0  0
 15 24  1  0  0  0
 15 26  1  0  0  0
 15 36  1  0  0  0
 16 21  1  0  0  0
 16 24  1  0  0  0
 16 25  1  0  0  0
 16 34  1  0  0  0
 27 28  1  0  0  0
 27 29  1  0  0  0
 27 30  1  0  0  0
 33 38  1  0  0  0
 33 43  1  0  0  0
 33 48  1  0  0  0
 34 39  1  0  0  0
 34 44  1  0  0  0
 34 49  1  0  0  0
 35 40  1  0  0  0
 35 45  1  0  0  0
 35 50  1  0  0  0
 36 41  1  0  0  0
 36 46  1  0  0  0
 36 51  1  0  0  0
 37 42  1  0  0  0
 37 47  1  0  0  0
 37 52  1  0  0  0
M  END
