c:/temp/sym/json/ozihel.json
__Jmol-15_08012216143D 1   1.00000     0.00000     0
Jmol version 15.2.66  2021-02-10 09:12 EXTRACT: ({0:8})
  9 21  0  0  0  0            999 V2000
    1.5825    0.0000    1.3590 Ge  0  0  0  0  0  0
    1.5825    0.0000   -1.3590 Ge  0  0  0  0  0  0
    1.2431    2.1531    0.0000 Ge  0  0  1  0  0  0
   -0.7913   -1.3705    1.3590 Ge  0  0  0  0  0  0
    1.2431   -2.1531    0.0000 Ge  0  0  2  0  0  0
   -0.7913    1.3705   -1.3590 Ge  0  0  0  0  0  0
   -0.7913    1.3705    1.3590 Ge  0  0  0  0  0  0
   -0.7913   -1.3705   -1.3590 Ge  0  0  0  0  0  0
   -2.4862    0.0000    0.0000 Ge  0  0  2  0  0  0
  9  8  1  0  0  0
  9  4  1  0  0  0
  9  7  1  0  0  0
  8  5  1  0  0  0
  8  4  1  0  0  0
  8  2  1  0  0  0
  7  4  1  0  0  0
  7  3  1  0  0  0
  7  1  1  0  0  0
  6  9  1  0  0  0
  6  8  1  0  0  0
  6  7  1  0  0  0
  6  2  1  0  0  0
  6  3  1  0  0  0
  5  1  1  0  0  0
  4  5  1  0  0  0
  4  1  1  0  0  0
  3  2  1  0  0  0
  3  1  1  0  0  0
  2  5  1  0  0  0
  2  1  1  0  0  0
M  END
