c:/temp/sym/json/p_dodecahedron.json
__Jmol-15_08012216153D 1   1.00000     0.00000     0
Jmol version 15.2.66  2021-02-10 09:12 EXTRACT: ({0:19})
 20 30  0  0  0  0            999 V2000
    0.7719    1.0624    1.7190 C   0  0  0  0  0  0
    1.2489    1.7190    0.4058 C   0  0  0  0  0  0
    1.2490   -0.4057    1.7190 C   0  0  0  0  0  0
    0.0001   -1.3132    1.7190 C   0  0  0  0  0  0
   -1.2489   -0.4058    1.7190 C   0  0  0  0  0  0
   -2.0208   -0.6566    0.4059 C   0  0  0  0  0  0
   -2.0208    0.6566   -0.4058 C   0  0  0  0  0  0
   -1.2489    1.7190    0.4058 C   0  0  0  0  0  0
    0.0000    2.1248   -0.4058 C   0  0  0  0  0  0
   -0.7719    1.0624    1.7190 C   0  0  0  0  0  0
    2.0208    0.6566   -0.4059 C   0  0  0  0  0  0
    1.2489    0.4058   -1.7190 C   0  0  0  0  0  0
    2.0208   -0.6566    0.4058 C   0  0  0  0  0  0
    1.2489   -1.7190   -0.4058 C   0  0  0  0  0  0
    0.0000   -2.1248    0.4058 C   0  0  0  0  0  0
   -1.2489   -1.7190   -0.4058 C   0  0  0  0  0  0
   -0.7719   -1.0624   -1.7190 C   0  0  0  0  0  0
   -1.2490    0.4057   -1.7190 C   0  0  0  0  0  0
   -0.0001    1.3132   -1.7190 C   0  0  0  0  0  0
    0.7719   -1.0624   -1.7190 C   0  0  0  0  0  0
  1  2  1  0  0  0
  1  3  1  0  0  0
  1 10  1  0  0  0
  2  9  1  0  0  0
  2 11  1  0  0  0
  3  4  1  0  0  0
  3 13  1  0  0  0
  4  5  1  0  0  0
  4 15  1  0  0  0
  5  6  1  0  0  0
  5 10  1  0  0  0
  6  7  1  0  0  0
  6 16  1  0  0  0
  7  8  1  0  0  0
  7 18  1  0  0  0
  8  9  1  0  0  0
  8 10  1  0  0  0
  9 19  1  0  0  0
 11 12  1  0  0  0
 11 13  1  0  0  0
 12 19  1  0  0  0
 12 20  1  0  0  0
 13 14  1  0  0  0
 14 15  1  0  0  0
 14 20  1  0  0  0
 15 16  1  0  0  0
 16 17  1  0  0  0
 17 18  1  0  0  0
 17 20  1  0  0  0
 18 19  1  0  0  0
M  END
