file:/C:/temp/snub_pointGroup.png|p_snub_dodecahedron.mol
__Jmol-15_08052205323D 1   1.00000     0.00000     0
Jmol version 15.2.67  2021-02-10 09:12 EXTRACT: ({0:59})
 60150  0  0  0  0            999 V2000
    1.6782   -1.4485    2.3771 C   0  0  0  0  0  0
   -0.5861   -2.9520    1.2280 C   0  0  0  0  0  0
   -0.8587   -2.0442    2.3770 C   0  0  0  0  0  0
    2.4815   -0.1908    2.0905 C   0  0  0  0  0  0
   -2.6264   -1.7561    0.7643 C   0  0  0  0  0  0
   -0.2729   -3.2308   -0.2326 C   0  0  0  0  0  0
   -1.2613   -2.7322   -1.2291 C   0  0  0  0  0  0
    2.6260    1.4693   -1.2285 C   0  0  0  0  0  0
    0.8583    3.0405   -0.7644 C   0  0  0  0  0  0
    0.9476   -2.3011   -2.0911 C   0  0  0  0  0  0
   -0.9480    0.8402    2.9933 C   0  0  0  0  0  0
    1.8956    1.1483    2.3774 C   0  0  0  0  0  0
   -2.1198   -1.3051    2.0904 C   0  0  0  0  0  0
    1.2608   -0.1236    2.9931 C   0  0  0  0  0  0
    0.5856   -2.4194    2.0902 C   0  0  0  0  0  0
    0.2725   -1.2380    2.9931 C   0  0  0  0  0  0
   -1.0928   -0.6423    2.9932 C   0  0  0  0  0  0
    1.0923   -2.9644   -0.7654 C   0  0  0  0  0  0
   -1.6788   -2.7743    0.2314 C   0  0  0  0  0  0
   -2.6264    1.7560   -0.7646 C   0  0  0  0  0  0
    0.5065   -1.1611   -2.9939 C   0  0  0  0  0  0
    1.8955   -1.1486   -2.3778 C   0  0  0  0  0  0
    1.6783    1.4483   -2.3775 C   0  0  0  0  0  0
   -0.8587    2.0440   -2.3772 C   0  0  0  0  0  0
    2.4814    0.1905   -2.0909 C   0  0  0  0  0  0
    0.5856    2.4191   -2.0904 C   0  0  0  0  0  0
    0.2724    1.2378   -2.9934 C   0  0  0  0  0  0
   -2.1198    1.3049   -2.0907 C   0  0  0  0  0  0
   -0.5070   -2.1578   -2.3780 C   0  0  0  0  0  0
    1.2607    0.1234   -2.9933 C   0  0  0  0  0  0
   -2.4819   -1.9551   -0.7652 C   0  0  0  0  0  0
   -2.9886    0.3552   -1.2287 C   0  0  0  0  0  0
   -3.1570    0.7389    0.2320 C   0  0  0  0  0  0
   -1.6786    2.7741   -0.2316 C   0  0  0  0  0  0
   -2.4818    1.9549    0.7649 C   0  0  0  0  0  0
   -0.5069    2.1576    2.3777 C   0  0  0  0  0  0
    0.5066    1.1608    2.9936 C   0  0  0  0  0  0
   -1.8960    1.6123    2.0909 C   0  0  0  0  0  0
   -2.2091    0.1845    2.3773 C   0  0  0  0  0  0
    2.2088    2.0434    1.2288 C   0  0  0  0  0  0
   -0.2728    3.2307    0.2323 C   0  0  0  0  0  0
    2.1193    2.4533   -0.2317 C   0  0  0  0  0  0
    2.9881   -1.2578   -0.2323 C   0  0  0  0  0  0
   -2.9887   -0.3553    1.2285 C   0  0  0  0  0  0
   -3.1571   -0.7390   -0.2321 C   0  0  0  0  0  0
    2.9882    1.2575    0.2319 C   0  0  0  0  0  0
    3.1566   -0.1233    0.7645 C   0  0  0  0  0  0
    2.1193   -2.4536    0.2314 C   0  0  0  0  0  0
    0.9477    2.3008    2.0908 C   0  0  0  0  0  0
    2.6261   -1.4696    1.2282 C   0  0  0  0  0  0
    0.8582   -3.0407    0.7641 C   0  0  0  0  0  0
   -1.2612    2.7320    1.2289 C   0  0  0  0  0  0
   -1.0928    0.6421   -2.9934 C   0  0  0  0  0  0
   -0.9481   -0.8404   -2.9935 C   0  0  0  0  0  0
   -2.2092   -0.1846   -2.3776 C   0  0  0  0  0  0
   -1.8961   -1.6125   -2.0911 C   0  0  0  0  0  0
   -0.5860    2.9519   -1.2283 C   0  0  0  0  0  0
    2.2087   -2.0437   -1.2291 C   0  0  0  0  0  0
    1.0924    2.9641    0.7650 C   0  0  0  0  0  0
    3.1567    0.1230   -0.7649 C   0  0  0  0  0  0
 60 47  1  0  0  0
 59 42  1  0  0  0
 59 40  1  0  0  0
 58 43  1  0  0  0
 57 26  1  0  0  0
 57 41  1  0  0  0
 57  9  1  0  0  0
 56 29  1  0  0  0
 56 54  1  0  0  0
 56  7  1  0  0  0
 55 28  1  0  0  0
 55 56  1  0  0  0
 55 54  1  0  0  0
 55 53  1  0  0  0
 54 29  1  0  0  0
 54 21  1  0  0  0
 53 54  1  0  0  0
 53 24  1  0  0  0
 53 27  1  0  0  0
 52 36  1  0  0  0
 52 41  1  0  0  0
 51 18  1  0  0  0
 51 48  1  0  0  0
 50 43  1  0  0  0
 50 47  1  0  0  0
 49 59  1  0  0  0
 49 40  1  0  0  0
 49 12  1  0  0  0
 48 58  1  0  0  0
 48 43  1  0  0  0
 48 50  1  0  0  0
 46 60  1  0  0  0
 46 47  1  0  0  0
 45 31  1  0  0  0
 45  5  1  0  0  0
 45 33  1  0  0  0
 45 32  1  0  0  0
 45 44  1  0  0  0
 44  5  1  0  0  0
 44 13  1  0  0  0
 44 39  1  0  0  0
 43 60  1  0  0  0
 43 47  1  0  0  0
 42  8  1  0  0  0
 42 46  1  0  0  0
 42 40  1  0  0  0
 41  9  1  0  0  0
 41 59  1  0  0  0
 40 46  1  0  0  0
 39 13  1  0  0  0
 39 38  1  0  0  0
 39 17  1  0  0  0
 39 11  1  0  0  0
 38 52  1  0  0  0
 38 11  1  0  0  0
 38 36  1  0  0  0
 37 49  1  0  0  0
 37 14  1  0  0  0
 37 12  1  0  0  0
 36 37  1  0  0  0
 36 49  1  0  0  0
 35 52  1  0  0  0
 35 34  1  0  0  0
 35 38  1  0  0  0
 34 52  1  0  0  0
 34 57  1  0  0  0
 34 41  1  0  0  0
 33 32  1  0  0  0
 33 35  1  0  0  0
 33 20  1  0  0  0
 33 44  1  0  0  0
 32 55  1  0  0  0
 32 28  1  0  0  0
 32 20  1  0  0  0
 31 56  1  0  0  0
 31  7  1  0  0  0
 31 19  1  0  0  0
 30 22  1  0  0  0
 30 23  1  0  0  0
 30 25  1  0  0  0
 29 21  1  0  0  0
 29 10  1  0  0  0
 28 53  1  0  0  0
 28 24  1  0  0  0
 27 26  1  0  0  0
 27 30  1  0  0  0
 27 23  1  0  0  0
 26  9  1  0  0  0
 26 23  1  0  0  0
 25  8  1  0  0  0
 25 60  1  0  0  0
 24 27  1  0  0  0
 24 26  1  0  0  0
 24 57  1  0  0  0
 23 25  1  0  0  0
 23  8  1  0  0  0
 22 58  1  0  0  0
 22 25  1  0  0  0
 21 10  1  0  0  0
 21 30  1  0  0  0
 21 22  1  0  0  0
 20 28  1  0  0  0
 20 35  1  0  0  0
 20 34  1  0  0  0
 19  7  1  0  0  0
 19  6  1  0  0  0
 19  2  1  0  0  0
 18 58  1  0  0  0
 18 48  1  0  0  0
 17 11  1  0  0  0
 17 16  1  0  0  0
 17  3  1  0  0  0
 16 15  1  0  0  0
 16  1  1  0  0  0
 16 14  1  0  0  0
 15 51  1  0  0  0
 15  1  1  0  0  0
 14  1  1  0  0  0
 14  4  1  0  0  0
 14 12  1  0  0  0
 13 17  1  0  0  0
 13  3  1  0  0  0
 12  4  1  0  0  0
 12 40  1  0  0  0
 11 37  1  0  0  0
 11 36  1  0  0  0
 10 18  1  0  0  0
 10 58  1  0  0  0
 10 22  1  0  0  0
  9 59  1  0  0  0
  9 42  1  0  0  0
  8 46  1  0  0  0
  8 60  1  0  0  0
  7 29  1  0  0  0
  7  6  1  0  0  0
  6 51  1  0  0  0
  6 18  1  0  0  0
  5 31  1  0  0  0
  5 19  1  0  0  0
  5 13  1  0  0  0
  4 50  1  0  0  0
  4 47  1  0  0  0
  3 15  1  0  0  0
  3  2  1  0  0  0
  3 16  1  0  0  0
  2 51  1  0  0  0
  2  6  1  0  0  0
  2 15  1  0  0  0
  1 50  1  0  0  0
  1  4  1  0  0  0
M  END
