c:/temp/sym/json/pecmoz.json
__Jmol-15_08012216143D 1   1.00000     0.00000     0
Jmol version 15.2.66  2021-02-10 09:12 EXTRACT: ({0:16})
 17 16  0  0  0  0            999 V2000
    0.0000    0.0000    0.0000 W   0  0  0  0  0  0
   -1.0608   -2.5847    1.7585 N   0  0  0  0  0  0
   -2.5847    1.0608    1.7585 N   0  0  0  0  0  0
    1.0608    2.5847    1.7585 N   0  0  0  0  0  0
    2.5847   -1.0608    1.7585 N   0  0  0  0  0  0
   -2.5847   -1.0608   -1.7585 N   0  0  0  0  0  0
   -1.0608    2.5847   -1.7585 N   0  0  0  0  0  0
    2.5847    1.0608   -1.7585 N   0  0  0  0  0  0
    1.0608   -2.5847   -1.7585 N   0  0  0  0  0  0
   -0.6905   -1.6825    1.1784 C   0  0  0  0  0  0
   -1.6825    0.6905    1.1784 C   0  0  0  0  0  0
    0.6905    1.6825    1.1784 C   0  0  0  0  0  0
    1.6825   -0.6905    1.1784 C   0  0  0  0  0  0
   -1.6825   -0.6905   -1.1784 C   0  0  0  0  0  0
   -0.6905    1.6825   -1.1784 C   0  0  0  0  0  0
    1.6825    0.6905   -1.1784 C   0  0  0  0  0  0
    0.6905   -1.6825   -1.1784 C   0  0  0  0  0  0
  1 10  1  0  0  0
  1 11  1  0  0  0
  1 12  1  0  0  0
  1 13  1  0  0  0
  1 14  1  0  0  0
  1 15  1  0  0  0
  1 16  1  0  0  0
  1 17  1  0  0  0
  2 10  1  0  0  0
  3 11  1  0  0  0
  4 12  1  0  0  0
  5 13  1  0  0  0
  6 14  1  0  0  0
  7 15  1  0  0  0
  8 16  1  0  0  0
  9 17  1  0  0  0
M  END
