c:/temp/sym/json/pefqum.json
__Jmol-15_08012216153D 1   1.00000     0.00000     0
Jmol version 15.2.66  2021-02-10 09:12 EXTRACT: ({0:24})
 25 36  0  0  0  0            999 V2000
    0.0000    0.0000    0.0000 Cr  0  0  0  0  0  0
   -0.0645    1.3885   -1.6052 C   0  0  2  0  0  0
   -0.1076    2.3177   -1.6052 H   0  0  0  0  0  0
   -1.2346    0.6385   -1.6052 C   0  0  2  0  0  0
   -2.0609    1.0657   -1.6052 H   0  0  0  0  0  0
   -1.1703   -0.7499   -1.6053 C   0  0  2  0  0  0
   -1.9534   -1.2519   -1.6053 H   0  0  0  0  0  0
    0.0643   -1.3884   -1.6053 C   0  0  2  0  0  0
    0.1075   -2.3175   -1.6054 H   0  0  0  0  0  0
    1.2346   -0.6384   -1.6053 C   0  0  2  0  0  0
    2.0608   -1.0656   -1.6053 H   0  0  0  0  0  0
    1.1702    0.7500   -1.6052 C   0  0  2  0  0  0
    1.9533    1.2520   -1.6053 H   0  0  0  0  0  0
    0.0645    1.3884    1.6053 C   0  0  1  0  0  0
    0.1077    2.3175    1.6054 H   0  0  0  0  0  0
   -1.1702    0.7500    1.6053 C   0  0  1  0  0  0
   -1.9533    1.2520    1.6054 H   0  0  0  0  0  0
   -1.2346   -0.6385    1.6052 C   0  0  1  0  0  0
   -2.0608   -1.0657    1.6053 H   0  0  0  0  0  0
   -0.0644   -1.3885    1.6053 C   0  0  1  0  0  0
   -0.1076   -2.3176    1.6052 H   0  0  0  0  0  0
    1.1703   -0.7501    1.6052 C   0  0  1  0  0  0
    1.9533   -1.2521    1.6052 H   0  0  0  0  0  0
    1.2346    0.6384    1.6052 C   0  0  1  0  0  0
    2.0609    1.0655    1.6053 H   0  0  0  0  0  0
  1  2  1  0  0  0
  1  4  1  0  0  0
  1  6  1  0  0  0
  1  8  1  0  0  0
  1 10  1  0  0  0
  1 12  1  0  0  0
  1 14  1  0  0  0
  1 16  1  0  0  0
  1 18  1  0  0  0
  1 20  1  0  0  0
  1 22  1  0  0  0
  1 24  1  0  0  0
  2  3  1  0  0  0
  2  4  1  0  0  0
  2 12  1  0  0  0
  4  5  1  0  0  0
  4  6  1  0  0  0
  6  7  1  0  0  0
  6  8  1  0  0  0
  8  9  1  0  0  0
  8 10  1  0  0  0
 10 11  1  0  0  0
 10 12  1  0  0  0
 12 13  1  0  0  0
 14 15  1  0  0  0
 14 16  1  0  0  0
 14 24  1  0  0  0
 16 17  1  0  0  0
 16 18  1  0  0  0
 18 19  1  0  0  0
 18 20  1  0  0  0
 20 21  1  0  0  0
 20 22  1  0  0  0
 22 23  1  0  0  0
 22 24  1  0  0  0
 24 25  1  0  0  0
M  END
