c:/temp/sym/json/powell2.json
__Jmol-15_08012216153D 1   1.00000     0.00000     0
Jmol version 15.2.66  2021-02-10 09:12 EXTRACT: ({0:16})
 17 16  0  0  0  0            999 V2000
    0.0000    0.0000    0.0000 C   0  0  1  0  0  0
    0.0000    1.2358    0.9393 C   0  0  2  0  0  0
    0.8768    1.2585    1.5934 H   0  0  0  0  0  0
   -0.8769    1.2585    1.5935 H   0  0  0  0  0  0
    0.0000    2.9551    0.0227 Br  0  0  0  0  0  0
   -1.2358    0.0000   -0.9393 C   0  0  2  0  0  0
   -1.2586    0.8769   -1.5934 H   0  0  0  0  0  0
   -2.9551    0.0000   -0.0227 Br  0  0  0  0  0  0
   -1.2586   -0.8768   -1.5934 H   0  0  0  0  0  0
    1.2359    0.0000   -0.9393 C   0  0  2  0  0  0
    2.9551    0.0000   -0.0226 Br  0  0  0  0  0  0
    1.2586    0.8769   -1.5933 H   0  0  0  0  0  0
    1.2586   -0.8768   -1.5934 H   0  0  0  0  0  0
    0.0000   -1.2359    0.9393 C   0  0  2  0  0  0
    0.8769   -1.2586    1.5934 H   0  0  0  0  0  0
    0.0000   -2.9551    0.0226 Br  0  0  0  0  0  0
   -0.8769   -1.2586    1.5933 H   0  0  0  0  0  0
  1  2  1  0  0  0
  1  6  1  0  0  0
  1 10  1  0  0  0
  1 14  1  0  0  0
  2  3  1  0  0  0
  2  4  1  0  0  0
  2  5  1  0  0  0
  6  7  1  0  0  0
  6  8  1  0  0  0
  6  9  1  0  0  0
 10 11  1  0  0  0
 10 12  1  0  0  0
 10 13  1  0  0  0
 14 15  1  0  0  0
 14 16  1  0  0  0
 14 17  1  0  0  0
M  END
