c:/temp/sym/json/qaqzud.json
__Jmol-15_08012216153D 1   1.00000     0.00000     0
Jmol version 15.2.66  2021-02-10 09:12 EXTRACT: ({0:65})
 66 72  0  0  0  0            999 V2000
    1.2197   -0.7042    1.4657 C   0  0  0  0  0  0
    1.2197    0.7042    1.4658 C   0  0  0  0  0  0
    0.0000    1.4084    1.4658 C   0  0  0  0  0  0
   -1.2196    0.7042    1.4658 C   0  0  0  0  0  0
   -1.2197   -0.7042    1.4658 C   0  0  0  0  0  0
    0.0000   -1.4084    1.4658 C   0  0  0  0  0  0
    2.5291   -1.4694    1.3459 C   0  0  2  0  0  0
    3.2841   -1.3594    0.0000 C   0  0  2  0  0  0
   -2.5290    1.4694    1.3460 C   0  0  1  0  0  0
    2.5371    1.4555    1.3459 C   0  0  1  0  0  0
    2.8193    2.1644    0.0000 C   0  0  1  0  0  0
   -2.5370   -1.4556    1.3459 C   0  0  1  0  0  0
    0.0081    2.9249    1.3460 C   0  0  1  0  0  0
   -0.4648    3.5237    0.0000 C   0  0  1  0  0  0
   -0.0080   -2.9249    1.3459 C   0  0  1  0  0  0
    2.3749   -2.4330    1.5512 H   0  0  0  0  0  0
    3.1601   -1.1557    2.0542 H   0  0  0  0  0  0
    3.9723   -2.1077    0.0000 H   0  0  0  0  0  0
    3.7738   -0.4203    0.0000 H   0  0  0  0  0  0
   -3.1601    1.1557    2.0542 H   0  0  0  0  0  0
   -2.3748    2.4331    1.5512 H   0  0  0  0  0  0
    2.5810    2.1588    2.0542 H   0  0  0  0  0  0
    3.2946    0.8402    1.5511 H   0  0  0  0  0  0
    2.2509    3.0581    0.0000 H   0  0  0  0  0  0
    3.8115    2.3863    0.0000 H   0  0  0  0  0  0
   -2.5809   -2.1588    2.0543 H   0  0  0  0  0  0
   -3.2945   -0.8402    1.5512 H   0  0  0  0  0  0
   -0.5791    3.3145    2.0542 H   0  0  0  0  0  0
    0.9197    3.2732    1.5512 H   0  0  0  0  0  0
   -1.5229    3.4784    0.0000 H   0  0  0  0  0  0
   -0.1609    4.4940    0.0000 H   0  0  0  0  0  0
    0.5792   -3.3146    2.0542 H   0  0  0  0  0  0
   -0.9197   -3.2732    1.5512 H   0  0  0  0  0  0
    2.5290   -1.4694   -1.3460 C   0  0  1  0  0  0
    1.2196   -0.7042   -1.4658 C   0  0  0  0  0  0
    0.0000   -1.4084   -1.4658 C   0  0  0  0  0  0
   -1.2197   -0.7042   -1.4658 C   0  0  0  0  0  0
   -1.2197    0.7042   -1.4657 C   0  0  0  0  0  0
    0.0000    1.4084   -1.4658 C   0  0  0  0  0  0
    1.2197    0.7042   -1.4658 C   0  0  0  0  0  0
    2.5370    1.4556   -1.3459 C   0  0  1  0  0  0
    2.5809    2.1588   -2.0543 H   0  0  0  0  0  0
    3.2945    0.8402   -1.5512 H   0  0  0  0  0  0
    0.0080    2.9249   -1.3459 C   0  0  1  0  0  0
   -0.5792    3.3146   -2.0542 H   0  0  0  0  0  0
    0.9197    3.2732   -1.5512 H   0  0  0  0  0  0
   -2.5291    1.4694   -1.3459 C   0  0  1  0  0  0
   -3.2841    1.3594    0.0000 C   0  0  2  0  0  0
   -3.9723    2.1077    0.0000 H   0  0  0  0  0  0
   -3.7738    0.4203    0.0000 H   0  0  0  0  0  0
   -2.3749    2.4330   -1.5512 H   0  0  0  0  0  0
   -3.1601    1.1557   -2.0542 H   0  0  0  0  0  0
   -2.5371   -1.4555   -1.3459 C   0  0  2  0  0  0
   -2.8193   -2.1644    0.0000 C   0  0  1  0  0  0
   -2.2509   -3.0581    0.0000 H   0  0  0  0  0  0
   -3.8115   -2.3863    0.0000 H   0  0  0  0  0  0
   -2.5810   -2.1588   -2.0542 H   0  0  0  0  0  0
   -3.2946   -0.8402   -1.5511 H   0  0  0  0  0  0
   -0.0081   -2.9249   -1.3460 C   0  0  2  0  0  0
    0.4648   -3.5237    0.0000 C   0  0  1  0  0  0
    1.5229   -3.4784    0.0000 H   0  0  0  0  0  0
    0.1609   -4.4940    0.0000 H   0  0  0  0  0  0
    0.5791   -3.3145   -2.0542 H   0  0  0  0  0  0
   -0.9197   -3.2732   -1.5512 H   0  0  0  0  0  0
    3.1601   -1.1557   -2.0542 H   0  0  0  0  0  0
    2.3748   -2.4331   -1.5512 H   0  0  0  0  0  0
  1  2  1  0  0  0
  1  6  1  0  0  0
  1  7  1  0  0  0
  2  3  1  0  0  0
  2 10  1  0  0  0
  3  4  1  0  0  0
  3 13  1  0  0  0
  4  5  1  0  0  0
  4  9  1  0  0  0
  5  6  1  0  0  0
  5 12  1  0  0  0
  6 15  1  0  0  0
  7  8  1  0  0  0
  7 16  1  0  0  0
  7 17  1  0  0  0
  8 18  1  0  0  0
  8 19  1  0  0  0
  8 34  1  0  0  0
  9 20  1  0  0  0
  9 21  1  0  0  0
  9 48  1  0  0  0
 10 11  1  0  0  0
 10 22  1  0  0  0
 10 23  1  0  0  0
 11 24  1  0  0  0
 11 25  1  0  0  0
 11 41  1  0  0  0
 12 26  1  0  0  0
 12 27  1  0  0  0
 12 54  1  0  0  0
 13 14  1  0  0  0
 13 28  1  0  0  0
 13 29  1  0  0  0
 14 30  1  0  0  0
 14 31  1  0  0  0
 14 44  1  0  0  0
 15 32  1  0  0  0
 15 33  1  0  0  0
 15 60  1  0  0  0
 34 35  1  0  0  0
 34 65  1  0  0  0
 34 66  1  0  0  0
 35 36  1  0  0  0
 35 40  1  0  0  0
 36 37  1  0  0  0
 36 59  1  0  0  0
 37 38  1  0  0  0
 37 53  1  0  0  0
 38 39  1  0  0  0
 38 47  1  0  0  0
 39 40  1  0  0  0
 39 44  1  0  0  0
 40 41  1  0  0  0
 41 42  1  0  0  0
 41 43  1  0  0  0
 44 45  1  0  0  0
 44 46  1  0  0  0
 47 48  1  0  0  0
 47 51  1  0  0  0
 47 52  1  0  0  0
 48 49  1  0  0  0
 48 50  1  0  0  0
 53 54  1  0  0  0
 53 57  1  0  0  0
 53 58  1  0  0  0
 54 55  1  0  0  0
 54 56  1  0  0  0
 59 60  1  0  0  0
 59 63  1  0  0  0
 59 64  1  0  0  0
 60 61  1  0  0  0
 60 62  1  0  0  0
M  END
