file:/C:/temp/sym/old/json/qemhul.json
__Jmol-15_08052204013D 1   1.00000     0.00000     0
Jmol version 15.2.67  2021-02-10 09:12 EXTRACT: ({0:279})
280318  0  0  0  0            999 V2000
    4.6144    4.6144   -4.6144 Ga  0  0  0  0  0  0
    3.1010    5.3648   -0.2006 N   0  0  0  0  0  0
    3.1964    4.9503   -1.1183 H   0  0  0  0  0  0
    4.2301    4.9689   -2.6383 O   0  0  0  0  0  0
    6.5017    5.1005   -4.1259 O   0  0  0  0  0  0
    4.1860    6.8025    1.1781 O   0  0  0  0  0  0
    5.3552    5.4957   -2.0514 C   0  0  0  0  0  0
    7.7520    5.9788   -2.2887 C   0  0  0  0  0  0
    8.6520    5.9805   -2.8871 H   0  0  0  0  0  0
    7.7890    6.4407   -0.9641 C   0  0  0  0  0  0
    8.7175    6.7949   -0.5397 H   0  0  0  0  0  0
    6.6115    6.4611   -0.1950 C   0  0  0  0  0  0
    6.6589    6.8416    0.8167 H   0  0  0  0  0  0
    5.3793    6.0016   -0.7179 C   0  0  0  0  0  0
    6.5392    5.5185   -2.8293 C   0  0  0  0  0  0
    4.1573    6.1063    0.1637 C   0  0  0  0  0  0
    1.8306    5.3105    0.4404 C   0  0  0  0  0  0
    1.7486    5.2795    1.8506 C   0  0  0  0  0  0
    0.5025    5.2736    2.4917 C   0  0  0  0  0  0
   -0.6827    5.2805    1.7401 C   0  0  0  0  0  0
    0.6345    5.2766   -0.3266 C   0  0  0  0  0  0
    2.6383    4.2301   -4.9689 O   0  0  0  0  0  0
    2.0514    5.3552   -5.4957 C   0  0  0  0  0  0
    0.7179    5.3793   -6.0016 C   0  0  0  0  0  0
    0.1950    6.6115   -6.4611 C   0  0  0  0  0  0
    0.9641    7.7890   -6.4407 C   0  0  0  0  0  0
    2.2887    7.7520   -5.9788 C   0  0  0  0  0  0
    2.8871    8.6520   -5.9805 H   0  0  0  0  0  0
    2.8293    6.5392   -5.5185 C   0  0  0  0  0  0
    4.1259    6.5017   -5.1005 O   0  0  0  0  0  0
    4.9689    2.6383   -4.2301 O   0  0  0  0  0  0
    5.4957    2.0514   -5.3552 C   0  0  0  0  0  0
    6.0016    0.7179   -5.3793 C   0  0  0  0  0  0
    6.4611    0.1950   -6.6115 C   0  0  0  0  0  0
    6.4407    0.9641   -7.7890 C   0  0  0  0  0  0
    5.9788    2.2887   -7.7520 C   0  0  0  0  0  0
    5.9805    2.8871   -8.6520 H   0  0  0  0  0  0
    5.5185    2.8293   -6.5392 C   0  0  0  0  0  0
    5.1005    4.1259   -6.5017 O   0  0  0  0  0  0
    6.7949    0.5397   -8.7175 H   0  0  0  0  0  0
    6.8416   -0.8167   -6.6589 H   0  0  0  0  0  0
    6.1063   -0.1637   -4.1573 C   0  0  0  0  0  0
    5.3648    0.2006   -3.1010 N   0  0  0  0  0  0
    4.9503    1.1183   -3.1964 H   0  0  0  0  0  0
    5.3105   -0.4404   -1.8306 C   0  0  0  0  0  0
    5.2795   -1.8506   -1.7486 C   0  0  0  0  0  0
    5.2736   -2.4917   -0.5025 C   0  0  0  0  0  0
    5.2805   -1.7401    0.6827 C   0  0  0  0  0  0
    5.2766   -0.3266    0.6345 C   0  0  0  0  0  0
    5.3105    0.4404    1.8306 C   0  0  0  0  0  0
    5.3648   -0.2006    3.1010 N   0  0  0  0  0  0
    4.9503   -1.1183    3.1964 H   0  0  0  0  0  0
    6.1063    0.1637    4.1573 C   0  0  0  0  0  0
    6.8025    1.1781    4.1860 O   0  0  0  0  0  0
    6.0016   -0.7179    5.3793 C   0  0  0  0  0  0
    5.4957   -2.0514    5.3552 C   0  0  0  0  0  0
    4.9689   -2.6383    4.2301 O   0  0  0  0  0  0
    4.6144   -4.6144    4.6144 Ga  0  0  0  0  0  0
    4.2301   -4.9689    2.6383 O   0  0  0  0  0  0
    5.3552   -5.4957    2.0514 C   0  0  0  0  0  0
    5.3793   -6.0016    0.7179 C   0  0  0  0  0  0
    6.6115   -6.4611    0.1950 C   0  0  0  0  0  0
    7.7890   -6.4407    0.9641 C   0  0  0  0  0  0
    7.7520   -5.9788    2.2887 C   0  0  0  0  0  0
    8.6520   -5.9805    2.8871 H   0  0  0  0  0  0
    6.5392   -5.5185    2.8293 C   0  0  0  0  0  0
    6.5017   -5.1005    4.1259 O   0  0  0  0  0  0
    2.6383   -4.2301    4.9689 O   0  0  0  0  0  0
    2.0514   -5.3552    5.4957 C   0  0  0  0  0  0
    0.7179   -5.3793    6.0016 C   0  0  0  0  0  0
    0.1950   -6.6115    6.4611 C   0  0  0  0  0  0
    0.9641   -7.7890    6.4407 C   0  0  0  0  0  0
    2.2887   -7.7520    5.9788 C   0  0  0  0  0  0
    2.8871   -8.6520    5.9805 H   0  0  0  0  0  0
    2.8293   -6.5392    5.5185 C   0  0  0  0  0  0
    4.1259   -6.5017    5.1005 O   0  0  0  0  0  0
    5.1005   -4.1259    6.5017 O   0  0  0  0  0  0
    5.5185   -2.8293    6.5392 C   0  0  0  0  0  0
    5.9788   -2.2887    7.7520 C   0  0  0  0  0  0
    5.9805   -2.8871    8.6520 H   0  0  0  0  0  0
    6.4407   -0.9641    7.7890 C   0  0  0  0  0  0
    6.7949   -0.5397    8.7175 H   0  0  0  0  0  0
    6.4611   -0.1950    6.6115 C   0  0  0  0  0  0
    6.8416    0.8167    6.6589 H   0  0  0  0  0  0
    0.5397   -8.7175    6.7949 H   0  0  0  0  0  0
   -0.8167   -6.6589    6.8416 H   0  0  0  0  0  0
   -0.1637   -4.1573    6.1063 C   0  0  0  0  0  0
    0.2006   -3.1010    5.3648 N   0  0  0  0  0  0
    1.1183   -3.1964    4.9503 H   0  0  0  0  0  0
   -0.4404   -1.8306    5.3105 C   0  0  0  0  0  0
   -1.8506   -1.7486    5.2795 C   0  0  0  0  0  0
   -2.4917   -0.5025    5.2736 C   0  0  0  0  0  0
   -1.7401    0.6827    5.2805 C   0  0  0  0  0  0
   -0.3266    0.6345    5.2766 C   0  0  0  0  0  0
    0.4404    1.8306    5.3105 C   0  0  0  0  0  0
   -0.2006    3.1010    5.3648 N   0  0  0  0  0  0
   -1.1183    3.1964    4.9503 H   0  0  0  0  0  0
    0.1637    4.1573    6.1063 C   0  0  0  0  0  0
    1.1781    4.1860    6.8025 O   0  0  0  0  0  0
   -0.7179    5.3793    6.0016 C   0  0  0  0  0  0
   -2.0514    5.3552    5.4957 C   0  0  0  0  0  0
   -2.6383    4.2301    4.9689 O   0  0  0  0  0  0
   -4.6144    4.6144    4.6144 Ga  0  0  0  0  0  0
   -4.9689    2.6383    4.2301 O   0  0  0  0  0  0
   -5.4957    2.0514    5.3552 C   0  0  0  0  0  0
   -6.0016    0.7179    5.3793 C   0  0  0  0  0  0
   -6.4611    0.1950    6.6115 C   0  0  0  0  0  0
   -6.4407    0.9641    7.7890 C   0  0  0  0  0  0
   -5.9788    2.2887    7.7520 C   0  0  0  0  0  0
   -5.9805    2.8871    8.6520 H   0  0  0  0  0  0
   -5.5185    2.8293    6.5392 C   0  0  0  0  0  0
   -5.1005    4.1259    6.5017 O   0  0  0  0  0  0
   -4.2301    4.9689    2.6383 O   0  0  0  0  0  0
   -5.3552    5.4957    2.0514 C   0  0  0  0  0  0
   -5.3793    6.0016    0.7179 C   0  0  0  0  0  0
   -6.6115    6.4611    0.1950 C   0  0  0  0  0  0
   -7.7890    6.4407    0.9641 C   0  0  0  0  0  0
   -7.7520    5.9788    2.2887 C   0  0  0  0  0  0
   -8.6520    5.9805    2.8871 H   0  0  0  0  0  0
   -6.5392    5.5185    2.8293 C   0  0  0  0  0  0
   -6.5017    5.1005    4.1259 O   0  0  0  0  0  0
   -4.1259    6.5017    5.1005 O   0  0  0  0  0  0
   -2.8293    6.5392    5.5185 C   0  0  0  0  0  0
   -2.2887    7.7520    5.9788 C   0  0  0  0  0  0
   -2.8871    8.6520    5.9805 H   0  0  0  0  0  0
   -0.9641    7.7890    6.4407 C   0  0  0  0  0  0
   -0.5397    8.7175    6.7949 H   0  0  0  0  0  0
   -0.1950    6.6115    6.4611 C   0  0  0  0  0  0
    0.8167    6.6589    6.8416 H   0  0  0  0  0  0
   -8.7175    6.7949    0.5397 H   0  0  0  0  0  0
   -6.6589    6.8416   -0.8167 H   0  0  0  0  0  0
   -4.1573    6.1063   -0.1637 C   0  0  0  0  0  0
   -3.1010    5.3648    0.2006 N   0  0  0  0  0  0
   -3.1964    4.9503    1.1183 H   0  0  0  0  0  0
   -1.8306    5.3105   -0.4404 C   0  0  0  0  0  0
   -1.7486    5.2795   -1.8506 C   0  0  0  0  0  0
   -0.5025    5.2736   -2.4917 C   0  0  0  0  0  0
    0.6827    5.2805   -1.7401 C   0  0  0  0  0  0
   -0.6345    5.2766    0.3266 C   0  0  0  0  0  0
   -4.1860    6.8025   -1.1781 O   0  0  0  0  0  0
   -6.7949    0.5397    8.7175 H   0  0  0  0  0  0
   -6.8416   -0.8167    6.6589 H   0  0  0  0  0  0
   -6.1063   -0.1637    4.1573 C   0  0  0  0  0  0
   -5.3648    0.2006    3.1010 N   0  0  0  0  0  0
   -4.9503    1.1183    3.1964 H   0  0  0  0  0  0
   -5.3105   -0.4404    1.8306 C   0  0  0  0  0  0
   -5.2795   -1.8506    1.7486 C   0  0  0  0  0  0
   -5.2736   -2.4917    0.5025 C   0  0  0  0  0  0
   -5.2805   -1.7401   -0.6827 C   0  0  0  0  0  0
   -5.2766   -0.3266   -0.6345 C   0  0  0  0  0  0
   -5.3105    0.4404   -1.8306 C   0  0  0  0  0  0
   -5.3648   -0.2006   -3.1010 N   0  0  0  0  0  0
   -4.9503   -1.1183   -3.1964 H   0  0  0  0  0  0
   -6.1063    0.1637   -4.1573 C   0  0  0  0  0  0
   -6.8025    1.1781   -4.1860 O   0  0  0  0  0  0
   -6.0016   -0.7179   -5.3793 C   0  0  0  0  0  0
   -5.4957   -2.0514   -5.3552 C   0  0  0  0  0  0
   -4.9689   -2.6383   -4.2301 O   0  0  0  0  0  0
   -4.6144   -4.6144   -4.6144 Ga  0  0  0  0  0  0
   -4.2301   -4.9689   -2.6383 O   0  0  0  0  0  0
   -5.3552   -5.4957   -2.0514 C   0  0  0  0  0  0
   -5.3793   -6.0016   -0.7179 C   0  0  0  0  0  0
   -6.6115   -6.4611   -0.1950 C   0  0  0  0  0  0
   -7.7890   -6.4407   -0.9641 C   0  0  0  0  0  0
   -7.7520   -5.9788   -2.2887 C   0  0  0  0  0  0
   -8.6520   -5.9805   -2.8871 H   0  0  0  0  0  0
   -6.5392   -5.5185   -2.8293 C   0  0  0  0  0  0
   -6.5017   -5.1005   -4.1259 O   0  0  0  0  0  0
   -2.6383   -4.2301   -4.9689 O   0  0  0  0  0  0
   -2.0514   -5.3552   -5.4957 C   0  0  0  0  0  0
   -0.7179   -5.3793   -6.0016 C   0  0  0  0  0  0
   -0.1950   -6.6115   -6.4611 C   0  0  0  0  0  0
   -0.9641   -7.7890   -6.4407 C   0  0  0  0  0  0
   -2.2887   -7.7520   -5.9788 C   0  0  0  0  0  0
   -2.8871   -8.6520   -5.9805 H   0  0  0  0  0  0
   -2.8293   -6.5392   -5.5185 C   0  0  0  0  0  0
   -4.1259   -6.5017   -5.1005 O   0  0  0  0  0  0
   -5.1005   -4.1259   -6.5017 O   0  0  0  0  0  0
   -5.5185   -2.8293   -6.5392 C   0  0  0  0  0  0
   -5.9788   -2.2887   -7.7520 C   0  0  0  0  0  0
   -5.9805   -2.8871   -8.6520 H   0  0  0  0  0  0
   -6.4407   -0.9641   -7.7890 C   0  0  0  0  0  0
   -6.7949   -0.5397   -8.7175 H   0  0  0  0  0  0
   -6.4611   -0.1950   -6.6115 C   0  0  0  0  0  0
   -6.8416    0.8167   -6.6589 H   0  0  0  0  0  0
   -0.5397   -8.7175   -6.7949 H   0  0  0  0  0  0
    0.8167   -6.6589   -6.8416 H   0  0  0  0  0  0
    0.1637   -4.1573   -6.1063 C   0  0  0  0  0  0
   -0.2006   -3.1010   -5.3648 N   0  0  0  0  0  0
   -1.1183   -3.1964   -4.9503 H   0  0  0  0  0  0
    0.4404   -1.8306   -5.3105 C   0  0  0  0  0  0
    1.8506   -1.7486   -5.2795 C   0  0  0  0  0  0
    2.4917   -0.5025   -5.2736 C   0  0  0  0  0  0
    1.7401    0.6827   -5.2805 C   0  0  0  0  0  0
    0.3266    0.6345   -5.2766 C   0  0  0  0  0  0
   -0.4404    1.8306   -5.3105 C   0  0  0  0  0  0
    0.2006    3.1010   -5.3648 N   0  0  0  0  0  0
    1.1183    3.1964   -4.9503 H   0  0  0  0  0  0
   -0.1637    4.1573   -6.1063 C   0  0  0  0  0  0
   -1.1781    4.1860   -6.8025 O   0  0  0  0  0  0
   -1.8506    1.7486   -5.2795 C   0  0  0  0  0  0
   -2.4917    0.5025   -5.2736 C   0  0  0  0  0  0
   -1.7401   -0.6827   -5.2805 C   0  0  0  0  0  0
   -0.3266   -0.6345   -5.2766 C   0  0  0  0  0  0
    1.1781   -4.1860   -6.8025 O   0  0  0  0  0  0
   -8.7175   -6.7949   -0.5397 H   0  0  0  0  0  0
   -6.6589   -6.8416    0.8167 H   0  0  0  0  0  0
   -4.1573   -6.1063    0.1637 C   0  0  0  0  0  0
   -3.1010   -5.3648   -0.2006 N   0  0  0  0  0  0
   -3.1964   -4.9503   -1.1183 H   0  0  0  0  0  0
   -1.8306   -5.3105    0.4404 C   0  0  0  0  0  0
   -1.7486   -5.2795    1.8506 C   0  0  0  0  0  0
   -0.5025   -5.2736    2.4917 C   0  0  0  0  0  0
    0.6827   -5.2805    1.7401 C   0  0  0  0  0  0
    0.6345   -5.2766    0.3266 C   0  0  0  0  0  0
    1.8306   -5.3105   -0.4404 C   0  0  0  0  0  0
    3.1010   -5.3648    0.2006 N   0  0  0  0  0  0
    3.1964   -4.9503    1.1183 H   0  0  0  0  0  0
    4.1573   -6.1063   -0.1637 C   0  0  0  0  0  0
    4.1860   -6.8025   -1.1781 O   0  0  0  0  0  0
    1.7486   -5.2795   -1.8506 C   0  0  0  0  0  0
    0.5025   -5.2736   -2.4917 C   0  0  0  0  0  0
   -0.6827   -5.2805   -1.7401 C   0  0  0  0  0  0
   -0.6345   -5.2766   -0.3266 C   0  0  0  0  0  0
   -4.1860   -6.8025    1.1781 O   0  0  0  0  0  0
   -5.2795    1.8506   -1.7486 C   0  0  0  0  0  0
   -5.2736    2.4917   -0.5025 C   0  0  0  0  0  0
   -5.2805    1.7401    0.6827 C   0  0  0  0  0  0
   -5.2766    0.3266    0.6345 C   0  0  0  0  0  0
   -6.8025   -1.1781    4.1860 O   0  0  0  0  0  0
    1.8506    1.7486    5.2795 C   0  0  0  0  0  0
    2.4917    0.5025    5.2736 C   0  0  0  0  0  0
    1.7401   -0.6827    5.2805 C   0  0  0  0  0  0
    0.3266   -0.6345    5.2766 C   0  0  0  0  0  0
   -1.1781   -4.1860    6.8025 O   0  0  0  0  0  0
    8.7175   -6.7949    0.5397 H   0  0  0  0  0  0
    6.6589   -6.8416   -0.8167 H   0  0  0  0  0  0
    5.2795    1.8506    1.7486 C   0  0  0  0  0  0
    5.2736    2.4917    0.5025 C   0  0  0  0  0  0
    5.2805    1.7401   -0.6827 C   0  0  0  0  0  0
    5.2766    0.3266   -0.6345 C   0  0  0  0  0  0
    6.8025   -1.1781   -4.1860 O   0  0  0  0  0  0
    0.5397    8.7175   -6.7949 H   0  0  0  0  0  0
   -0.8167    6.6589   -6.8416 H   0  0  0  0  0  0
    2.6706    5.2598    2.4503 H   0  0  0  0  0  0
    0.4530    5.2635    3.5905 H   0  0  0  0  0  0
   -1.6554    5.2889    2.2537 H   0  0  0  0  0  0
    5.2598   -2.4503   -2.6706 H   0  0  0  0  0  0
    5.2635   -3.5905   -0.4530 H   0  0  0  0  0  0
    5.2889   -2.2537    1.6554 H   0  0  0  0  0  0
   -2.4503   -2.6706    5.2598 H   0  0  0  0  0  0
   -3.5905   -0.4530    5.2635 H   0  0  0  0  0  0
   -2.2537    1.6554    5.2889 H   0  0  0  0  0  0
   -2.6706    5.2598   -2.4503 H   0  0  0  0  0  0
   -0.4530    5.2635   -3.5905 H   0  0  0  0  0  0
    1.6554    5.2889   -2.2537 H   0  0  0  0  0  0
   -5.2598   -2.4503    2.6706 H   0  0  0  0  0  0
   -5.2635   -3.5905    0.4530 H   0  0  0  0  0  0
   -5.2889   -2.2537   -1.6554 H   0  0  0  0  0  0
    2.4503   -2.6706   -5.2598 H   0  0  0  0  0  0
    3.5905   -0.4530   -5.2635 H   0  0  0  0  0  0
    2.2537    1.6554   -5.2889 H   0  0  0  0  0  0
   -2.4503    2.6706   -5.2598 H   0  0  0  0  0  0
   -3.5905    0.4530   -5.2635 H   0  0  0  0  0  0
   -2.2537   -1.6554   -5.2889 H   0  0  0  0  0  0
   -2.6706   -5.2598    2.4503 H   0  0  0  0  0  0
   -0.4530   -5.2635    3.5905 H   0  0  0  0  0  0
    1.6554   -5.2889    2.2537 H   0  0  0  0  0  0
    2.6706   -5.2598   -2.4503 H   0  0  0  0  0  0
    0.4530   -5.2635   -3.5905 H   0  0  0  0  0  0
   -1.6554   -5.2889   -2.2537 H   0  0  0  0  0  0
   -5.2598    2.4503   -2.6706 H   0  0  0  0  0  0
   -5.2635    3.5905   -0.4530 H   0  0  0  0  0  0
   -5.2889    2.2537    1.6554 H   0  0  0  0  0  0
    2.4503    2.6706    5.2598 H   0  0  0  0  0  0
    3.5905    0.4530    5.2635 H   0  0  0  0  0  0
    2.2537   -1.6554    5.2889 H   0  0  0  0  0  0
    5.2598    2.4503    2.6706 H   0  0  0  0  0  0
    5.2635    3.5905    0.4530 H   0  0  0  0  0  0
    5.2889    2.2537   -1.6554 H   0  0  0  0  0  0
  1  4  1  0  0  0
  1  5  1  0  0  0
  1 22  1  0  0  0
  1 30  1  0  0  0
  1 31  1  0  0  0
  1 39  1  0  0  0
  2  3  1  0  0  0
  2 16  1  0  0  0
  2 17  1  0  0  0
  4  7  1  0  0  0
  5 15  1  0  0  0
  6 16  2  0  0  0
  7 14  2  0  0  0
  7 15  1  0  0  0
  8  9  1  0  0  0
  8 10  1  0  0  0
  8 15  2  0  0  0
 10 11  1  0  0  0
 10 12  2  0  0  0
 12 13  1  0  0  0
 12 14  1  0  0  0
 14 16  1  0  0  0
 17 18  2  0  0  0
 17 21  1  0  0  0
 18 19  1  0  0  0
 19 20  2  0  0  0
 20139  1  0  0  0
 21138  1  0  0  0
 21139  2  0  0  0
 22 23  1  0  0  0
 23 24  2  0  0  0
 23 29  1  0  0  0
 24 25  1  0  0  0
 24199  1  0  0  0
 25 26  2  0  0  0
 25244  1  0  0  0
 26 27  1  0  0  0
 26243  1  0  0  0
 27 28  1  0  0  0
 27 29  2  0  0  0
 29 30  1  0  0  0
 31 32  1  0  0  0
 32 33  2  0  0  0
 32 38  1  0  0  0
 33 34  1  0  0  0
 33 42  1  0  0  0
 34 35  2  0  0  0
 34 41  1  0  0  0
 35 36  1  0  0  0
 35 40  1  0  0  0
 36 37  1  0  0  0
 36 38  2  0  0  0
 38 39  1  0  0  0
 42 43  1  0  0  0
 42242  2  0  0  0
 43 44  1  0  0  0
 43 45  1  0  0  0
 45 46  2  0  0  0
 45241  1  0  0  0
 46 47  1  0  0  0
 47 48  2  0  0  0
 48 49  1  0  0  0
 49 50  2  0  0  0
 49241  1  0  0  0
 50 51  1  0  0  0
 50238  1  0  0  0
 51 52  1  0  0  0
 51 53  1  0  0  0
 53 54  2  0  0  0
 53 55  1  0  0  0
 55 56  2  0  0  0
 55 83  1  0  0  0
 56 57  1  0  0  0
 56 78  1  0  0  0
 57 58  1  0  0  0
 58 59  1  0  0  0
 58 67  1  0  0  0
 58 68  1  0  0  0
 58 76  1  0  0  0
 58 77  1  0  0  0
 59 60  1  0  0  0
 60 61  2  0  0  0
 60 66  1  0  0  0
 61 62  1  0  0  0
 61219  1  0  0  0
 62 63  2  0  0  0
 62237  1  0  0  0
 63 64  1  0  0  0
 63236  1  0  0  0
 64 65  1  0  0  0
 64 66  2  0  0  0
 66 67  1  0  0  0
 68 69  1  0  0  0
 69 70  2  0  0  0
 69 75  1  0  0  0
 70 71  1  0  0  0
 70 87  1  0  0  0
 71 72  2  0  0  0
 71 86  1  0  0  0
 72 73  1  0  0  0
 72 85  1  0  0  0
 73 74  1  0  0  0
 73 75  2  0  0  0
 75 76  1  0  0  0
 77 78  1  0  0  0
 78 79  2  0  0  0
 79 80  1  0  0  0
 79 81  1  0  0  0
 81 82  1  0  0  0
 81 83  2  0  0  0
 83 84  1  0  0  0
 87 88  1  0  0  0
 87235  2  0  0  0
 88 89  1  0  0  0
 88 90  1  0  0  0
 90 91  2  0  0  0
 90234  1  0  0  0
 91 92  1  0  0  0
 92 93  2  0  0  0
 93 94  1  0  0  0
 94 95  2  0  0  0
 94234  1  0  0  0
 95 96  1  0  0  0
 95231  1  0  0  0
 96 97  1  0  0  0
 96 98  1  0  0  0
 98 99  2  0  0  0
 98100  1  0  0  0
100101  2  0  0  0
100128  1  0  0  0
101102  1  0  0  0
101123  1  0  0  0
102103  1  0  0  0
103104  1  0  0  0
103112  1  0  0  0
103113  1  0  0  0
103121  1  0  0  0
103122  1  0  0  0
104105  1  0  0  0
105106  2  0  0  0
105111  1  0  0  0
106107  1  0  0  0
106143  1  0  0  0
107108  2  0  0  0
107142  1  0  0  0
108109  1  0  0  0
108141  1  0  0  0
109110  1  0  0  0
109111  2  0  0  0
111112  1  0  0  0
113114  1  0  0  0
114115  2  0  0  0
114120  1  0  0  0
115116  1  0  0  0
115132  1  0  0  0
116117  2  0  0  0
116131  1  0  0  0
117118  1  0  0  0
117130  1  0  0  0
118119  1  0  0  0
118120  2  0  0  0
120121  1  0  0  0
122123  1  0  0  0
123124  2  0  0  0
124125  1  0  0  0
124126  1  0  0  0
126127  1  0  0  0
126128  2  0  0  0
128129  1  0  0  0
132133  1  0  0  0
132140  2  0  0  0
133134  1  0  0  0
133135  1  0  0  0
135136  2  0  0  0
135139  1  0  0  0
136137  1  0  0  0
137138  2  0  0  0
143144  1  0  0  0
143230  2  0  0  0
144145  1  0  0  0
144146  1  0  0  0
146147  2  0  0  0
146229  1  0  0  0
147148  1  0  0  0
148149  2  0  0  0
149150  1  0  0  0
150151  2  0  0  0
150229  1  0  0  0
151152  1  0  0  0
151226  1  0  0  0
152153  1  0  0  0
152154  1  0  0  0
154155  2  0  0  0
154156  1  0  0  0
156157  2  0  0  0
156184  1  0  0  0
157158  1  0  0  0
157179  1  0  0  0
158159  1  0  0  0
159160  1  0  0  0
159168  1  0  0  0
159169  1  0  0  0
159177  1  0  0  0
159178  1  0  0  0
160161  1  0  0  0
161162  2  0  0  0
161167  1  0  0  0
162163  1  0  0  0
162208  1  0  0  0
163164  2  0  0  0
163207  1  0  0  0
164165  1  0  0  0
164206  1  0  0  0
165166  1  0  0  0
165167  2  0  0  0
167168  1  0  0  0
169170  1  0  0  0
170171  2  0  0  0
170176  1  0  0  0
171172  1  0  0  0
171188  1  0  0  0
172173  2  0  0  0
172187  1  0  0  0
173174  1  0  0  0
173186  1  0  0  0
174175  1  0  0  0
174176  2  0  0  0
176177  1  0  0  0
178179  1  0  0  0
179180  2  0  0  0
180181  1  0  0  0
180182  1  0  0  0
182183  1  0  0  0
182184  2  0  0  0
184185  1  0  0  0
188189  1  0  0  0
188205  2  0  0  0
189190  1  0  0  0
189191  1  0  0  0
191192  2  0  0  0
191204  1  0  0  0
192193  1  0  0  0
193194  2  0  0  0
194195  1  0  0  0
195196  2  0  0  0
195204  1  0  0  0
196197  1  0  0  0
196201  1  0  0  0
197198  1  0  0  0
197199  1  0  0  0
199200  2  0  0  0
201202  2  0  0  0
202203  1  0  0  0
203204  2  0  0  0
208209  1  0  0  0
208225  2  0  0  0
209210  1  0  0  0
209211  1  0  0  0
211212  2  0  0  0
211224  1  0  0  0
212213  1  0  0  0
213214  2  0  0  0
214215  1  0  0  0
215216  2  0  0  0
215224  1  0  0  0
216217  1  0  0  0
216221  1  0  0  0
217218  1  0  0  0
217219  1  0  0  0
219220  2  0  0  0
221222  2  0  0  0
222223  1  0  0  0
223224  2  0  0  0
226227  2  0  0  0
227228  1  0  0  0
228229  2  0  0  0
231232  2  0  0  0
232233  1  0  0  0
233234  2  0  0  0
238239  2  0  0  0
239240  1  0  0  0
240241  2  0  0  0
245 18  1  0  0  0
246 19  1  0  0  0
247 20  1  0  0  0
248 46  1  0  0  0
249 47  1  0  0  0
250 48  1  0  0  0
251 91  1  0  0  0
252 92  1  0  0  0
253 93  1  0  0  0
254136  1  0  0  0
255137  1  0  0  0
256138  1  0  0  0
257147  1  0  0  0
258148  1  0  0  0
259149  1  0  0  0
260192  1  0  0  0
261193  1  0  0  0
262194  1  0  0  0
263201  1  0  0  0
264202  1  0  0  0
265203  1  0  0  0
266212  1  0  0  0
267213  1  0  0  0
268214  1  0  0  0
269221  1  0  0  0
270222  1  0  0  0
271223  1  0  0  0
272226  1  0  0  0
273227  1  0  0  0
274228  1  0  0  0
275231  1  0  0  0
276232  1  0  0  0
277233  1  0  0  0
278238  1  0  0  0
279239  1  0  0  0
280240  1  0  0  0
M  END
