c:/temp/sym/json/s4n4.json
__Jmol-15_08012216143D 1   1.00000     0.00000     0
Jmol version 15.2.66  2021-02-10 09:12 EXTRACT: ({0:7})
  8  8  0  0  0  0            999 V2000
   -1.2976    0.0000    0.9960 S   0  0  0  0  0  0
    0.0000   -1.2976   -0.9960 S   0  0  0  0  0  0
    1.2976    0.0000    0.9960 S   0  0  0  0  0  0
    0.0000    1.2976   -0.9960 S   0  0  0  0  0  0
    1.2866   -1.2866    0.0000 N   0  0  0  0  0  0
   -1.2866    1.2866    0.0000 N   0  0  0  0  0  0
    1.2866    1.2866    0.0000 N   0  0  0  0  0  0
   -1.2866   -1.2866    0.0000 N   0  0  0  0  0  0
  7  4  1  0  0  0
  7  3  1  0  0  0
  6  1  1  0  0  0
  5  2  1  0  0  0
  4  6  1  0  0  0
  3  5  1  0  0  0
  2  8  1  0  0  0
  1  8  1  0  0  0
M  END
