c:/temp/sym/json/soqtoh.json
__Jmol-15_08012216143D 1   1.00000     0.00000     0
Jmol version 15.2.66  2021-02-10 09:12 EXTRACT: ({0:27})
 28 32  0  0  0  0            999 V2000
    0.0000    0.0000   -0.7541 Ni  0  0  0  0  0  0
    0.0000    0.0000   -2.3738 N   0  0  0  0  0  0
    0.0000    0.0000   -3.5506 O   0  0  0  0  0  0
    0.9862    0.7165    0.9641 C   0  0  2  0  0  0
    0.9862   -0.7165    0.9641 C   0  0  1  0  0  0
   -0.3767   -1.1593    0.9641 C   0  0  1  0  0  0
   -1.2190    0.0000    0.9641 C   0  0  1  0  0  0
   -0.3767    1.1593    0.9641 C   0  0  2  0  0  0
    2.2027    1.6003    1.0074 C   0  0  0  0  0  0
    2.4440    1.7757    1.9330 H   0  0  0  0  0  0
    2.9610    1.2015    0.6131 H   0  0  0  0  0  0
    2.0577    2.4448    0.6131 H   0  0  0  0  0  0
    2.2027   -1.6003    1.0074 C   0  0  0  0  0  0
    2.9610   -1.2015    0.6131 H   0  0  0  0  0  0
    2.4440   -1.7757    1.9330 H   0  0  0  0  0  0
    2.0577   -2.4448    0.6131 H   0  0  0  0  0  0
   -0.8413   -2.5894    1.0074 C   0  0  0  0  0  0
   -0.2277   -3.1874    0.6131 H   0  0  0  0  0  0
   -1.6893   -2.7125    0.6131 H   0  0  0  0  0  0
   -0.9335   -2.8731    1.9330 H   0  0  0  0  0  0
   -2.7226    0.0000    1.0074 C   0  0  0  0  0  0
   -3.1017   -0.7684    0.6131 H   0  0  0  0  0  0
   -3.0210    0.0000    1.9330 H   0  0  0  0  0  0
   -3.1017    0.7684    0.6131 H   0  0  0  0  0  0
   -0.8413    2.5894    1.0074 C   0  0  0  0  0  0
   -1.6893    2.7125    0.6131 H   0  0  0  0  0  0
   -0.2277    3.1874    0.6131 H   0  0  0  0  0  0
   -0.9335    2.8731    1.9330 H   0  0  0  0  0  0
 27 25  1  0  0  0
 25 28  1  0  0  0
 25 26  1  0  0  0
 21 23  1  0  0  0
 21 24  1  0  0  0
 21 22  1  0  0  0
 18 17  1  0  0  0
 17 20  1  0  0  0
 17 19  1  0  0  0
 15 13  1  0  0  0
 14 13  1  0  0  0
 13  5  1  0  0  0
 13 16  1  0  0  0
 12  9  1  0  0  0
 11  9  1  0  0  0
 10  9  1  0  0  0
  9  4  1  0  0  0
  8 25  1  0  0  0
  8  7  1  0  0  0
  7 21  1  0  0  0
  6 17  1  0  0  0
  6  7  1  0  0  0
  5  6  1  0  0  0
  5  1  1  0  0  0
  4  8  1  0  0  0
  4  5  1  0  0  0
  4  1  1  0  0  0
  3  2  1  0  0  0
  2  1  1  0  0  0
  1  8  1  0  0  0
  1  6  1  0  0  0
  1  7  1  0  0  0
M  END
