c:/temp/sym/json/sukgua.json
__Jmol-15_08012216153D 1   1.00000     0.00000     0
Jmol version 15.2.66  2021-02-10 09:12 EXTRACT: ({0:17})
 18 21  0  0  0  0            999 V2000
    0.0000    0.0000   -0.4412 Cu  0  0  0  0  0  0
    0.0000    1.9724    0.0581 N   0  0  2  0  0  0
    0.0000    0.0000   -2.5843 O   0  0  0  0  0  0
    1.9723    0.0000    0.0581 N   0  0  2  0  0  0
    0.0000   -1.9724    0.0581 N   0  0  2  0  0  0
   -1.9723    0.0000    0.0582 N   0  0  2  0  0  0
    0.1439    2.9380   -1.0370 C   0  0  0  0  0  0
    1.0861    2.0753    1.0142 C   0  0  0  0  0  0
    2.2179    1.3219    0.7208 C   0  0  0  0  0  0
    2.9377   -0.1440   -1.0369 C   0  0  0  0  0  0
    2.0752   -1.0860    1.0143 C   0  0  0  0  0  0
    1.3220   -2.2177    0.7207 C   0  0  0  0  0  0
   -0.1440   -2.9380   -1.0370 C   0  0  0  0  0  0
   -1.0860   -2.0753    1.0144 C   0  0  0  0  0  0
   -2.2178   -1.3219    0.7210 C   0  0  0  0  0  0
   -2.9377    0.1440   -1.0366 C   0  0  0  0  0  0
   -2.0752    1.0860    1.0144 C   0  0  0  0  0  0
   -1.3220    2.2177    0.7208 C   0  0  0  0  0  0
  1  2  1  0  0  0
  1  3  1  0  0  0
  1  4  1  0  0  0
  1  5  1  0  0  0
  1  6  1  0  0  0
  2  7  1  0  0  0
  2  8  1  0  0  0
  2 18  1  0  0  0
  4  9  1  0  0  0
  4 10  1  0  0  0
  4 11  1  0  0  0
  5 12  1  0  0  0
  5 13  1  0  0  0
  5 14  1  0  0  0
  6 15  1  0  0  0
  6 16  1  0  0  0
  6 17  1  0  0  0
  8  9  1  0  0  0
 11 12  1  0  0  0
 14 15  1  0  0  0
 17 18  1  0  0  0
M  END
