c:/temp/sym/json/trans-co-en2-cl2.json
__Jmol-15_08012216143D 1   1.00000     0.00000     0
Jmol version 15.2.66  2021-02-10 09:12 EXTRACT: ({0:26})
 27 28  0  0  0  0            999 V2000
    0.0000    0.0000    0.0000 Co  0  0  0  0  0  0
   -0.1688   -2.2482    0.0000 Cl  0  0  0  0  0  0
   -1.3260    0.1301   -1.4332 N   0  0  1  0  0  0
   -1.7806   -0.6438   -1.5014 H   0  0  0  0  0  0
   -1.9130    0.7874   -1.2486 H   0  0  0  0  0  0
    1.3260   -0.1301   -1.4332 N   0  0  1  0  0  0
    1.7806    0.6438   -1.5014 H   0  0  0  0  0  0
    1.9130   -0.7874   -1.2486 H   0  0  0  0  0  0
   -0.6277    0.4205   -2.7106 C   0  0  2  0  0  0
   -0.4046    1.3629   -2.7683 H   0  0  0  0  0  0
   -1.1913    0.1882   -3.4649 H   0  0  0  0  0  0
    0.6277   -0.4205   -2.7106 C   0  0  2  0  0  0
    0.4046   -1.3629   -2.7683 H   0  0  0  0  0  0
    1.1913   -0.1882   -3.4649 H   0  0  0  0  0  0
    0.1688    2.2482    0.0000 Cl  0  0  0  0  0  0
    1.3260   -0.1301    1.4332 N   0  0  2  0  0  0
    1.7806    0.6438    1.5014 H   0  0  0  0  0  0
    1.9130   -0.7874    1.2486 H   0  0  0  0  0  0
   -1.3260    0.1301    1.4332 N   0  0  2  0  0  0
   -1.7806   -0.6438    1.5014 H   0  0  0  0  0  0
   -1.9130    0.7874    1.2486 H   0  0  0  0  0  0
    0.6277   -0.4205    2.7106 C   0  0  1  0  0  0
    0.4046   -1.3629    2.7683 H   0  0  0  0  0  0
    1.1913   -0.1882    3.4649 H   0  0  0  0  0  0
   -0.6277    0.4205    2.7106 C   0  0  1  0  0  0
   -0.4046    1.3629    2.7683 H   0  0  0  0  0  0
   -1.1913    0.1882    3.4649 H   0  0  0  0  0  0
 26 25  1  0  0  0
 25 27  1  0  0  0
 25 19  1  0  0  0
 24 22  1  0  0  0
 22 23  1  0  0  0
 22 16  1  0  0  0
 22 25  1  0  0  0
 21 19  1  0  0  0
 19 20  1  0  0  0
 19  1  1  0  0  0
 17 16  1  0  0  0
 16 18  1  0  0  0
 16  1  1  0  0  0
 15  1  1  0  0  0
 14 12  1  0  0  0
 12  9  1  0  0  0
 12 13  1  0  0  0
 10  9  1  0  0  0
  9 11  1  0  0  0
  7  6  1  0  0  0
  6  8  1  0  0  0
  6 12  1  0  0  0
  5  3  1  0  0  0
  3  9  1  0  0  0
  3  4  1  0  0  0
  1  2  1  0  0  0
  1  3  1  0  0  0
  1  6  1  0  0  0
M  END
