c:/temp/sym/json/venteo.json
__Jmol-15_08012216143D 1   1.00000     0.00000     0
Jmol version 15.2.66  2021-02-10 09:12 EXTRACT: ({0:30})
 31 40  0  0  0  0            999 V2000
    0.0001    0.0000    1.2015 Fe  0  0  0  0  0  0
    0.0001    1.7995    2.7283 P   0  0  0  0  0  0
   -1.7114    0.5561    2.7283 P   0  0  0  0  0  0
   -1.0577   -1.4557    2.7283 P   0  0  0  0  0  0
    1.0577   -1.4557    2.7284 P   0  0  0  0  0  0
    1.7114    0.5561    2.7284 P   0  0  0  0  0  0
    0.5000   -1.1105   -0.5110 C   0  0  2  0  0  0
    1.2106    0.1323   -0.5109 C   0  0  1  0  0  0
    0.2482    1.1922   -0.5110 C   0  0  1  0  0  0
   -1.0571    0.6045   -0.5110 C   0  0  1  0  0  0
   -0.9017   -0.8187   -0.5109 C   0  0  2  0  0  0
    1.1093   -2.4782   -0.6000 C   0  0  0  0  0  0
    2.6997    0.2892   -0.6001 C   0  0  0  0  0  0
    0.5591    2.6570   -0.6001 C   0  0  0  0  0  0
   -2.3541    1.3529   -0.6000 C   0  0  0  0  0  0
   -2.0141   -1.8209   -0.6000 C   0  0  0  0  0  0
    1.2008   -2.7343   -1.5375 H   0  0  0  0  0  0
    0.5338   -3.1229   -0.1423 H   0  0  0  0  0  0
    1.9903   -2.4705   -0.1778 H   0  0  0  0  0  0
    3.1351   -0.4574   -0.1424 H   0  0  0  0  0  0
    2.9646    1.1294   -0.1778 H   0  0  0  0  0  0
    2.9716    0.2970   -1.5376 H   0  0  0  0  0  0
    1.4037    2.8403   -0.1425 H   0  0  0  0  0  0
   -0.1581    3.1685   -0.1779 H   0  0  0  0  0  0
    0.6358    2.9179   -1.5375 H   0  0  0  0  0  0
   -2.5787    1.5063   -1.5375 H   0  0  0  0  0  0
   -2.2675    2.2127   -0.1424 H   0  0  0  0  0  0
   -3.0623    0.8288   -0.1778 H   0  0  0  0  0  0
   -2.8052   -1.4727   -0.1423 H   0  0  0  0  0  0
   -1.7345   -2.6562   -0.1777 H   0  0  0  0  0  0
   -2.2294   -1.9870   -1.5374 H   0  0  0  0  0  0
  1  2  1  0  0  0
  1  3  1  0  0  0
  1  4  1  0  0  0
  1  5  1  0  0  0
  1  6  1  0  0  0
  1  7  1  0  0  0
  1  8  1  0  0  0
  1  9  1  0  0  0
  1 10  1  0  0  0
  1 11  1  0  0  0
  2  3  1  0  0  0
  2  6  1  0  0  0
  3  4  1  0  0  0
  4  5  1  0  0  0
  5  6  1  0  0  0
  7  8  1  0  0  0
  7 11  1  0  0  0
  7 12  1  0  0  0
  8  9  1  0  0  0
  8 13  1  0  0  0
  9 10  1  0  0  0
  9 14  1  0  0  0
 10 11  1  0  0  0
 10 15  1  0  0  0
 11 16  1  0  0  0
 12 17  1  0  0  0
 12 18  1  0  0  0
 12 19  1  0  0  0
 13 20  1  0  0  0
 13 21  1  0  0  0
 13 22  1  0  0  0
 14 23  1  0  0  0
 14 24  1  0  0  0
 14 25  1  0  0  0
 15 26  1  0  0  0
 15 27  1  0  0  0
 15 28  1  0  0  0
 16 29  1  0  0  0
 16 30  1  0  0  0
 16 31  1  0  0  0
M  END
