c:/temp/sym/json/water.json
__Jmol-15_08012216153D 1   1.00000     0.00000     0
Jmol version 15.2.66  2021-02-10 09:12 EXTRACT: ({0:2})
  3  2  0  0  0  0            999 V2000
    0.0000    0.0000    0.3696 O   0  0  0  0  0  0
    0.0000   -0.7839   -0.1848 H   0  0  0  0  0  0
    0.0000    0.7839   -0.1848 H   0  0  0  0  0  0
  1  2  1  0  0  0
  1  3  1  0  0  0
M  END
