c:/temp/sym/json/webqax.json
__Jmol-15_08012216153D 1   1.00000     0.00000     0
Jmol version 15.2.66  2021-02-10 09:12 EXTRACT: ({0:4})
  5  4  0  0  0  0            999 V2000
    0.0000    0.0000    0.4227 S   0  0  2  0  0  0
    0.0000    1.1320   -0.6717 F   0  0  0  0  0  0
    0.0000   -1.1320   -0.6717 F   0  0  0  0  0  0
   -1.6780    0.0000    0.3139 F   0  0  0  0  0  0
    1.6780    0.0000    0.3139 F   0  0  0  0  0  0
  4  1  1  0  0  0
  3  1  1  0  0  0
  2  1  1  0  0  0
  1  5  1  0  0  0
M  END
