c:/temp/sym/json/wemsud.json
__Jmol-15_08012216143D 1   1.00000     0.00000     0
Jmol version 15.2.66  2021-02-10 09:12 EXTRACT: ({0:26})
 27 28  0  0  0  0            999 V2000
    0.0000    0.0000    0.0000 Co  0  0  0  0  0  0
    0.0000   -2.2505    0.0000 Cl  0  0  0  0  0  0
    0.0000    2.2505    0.0000 Cl  0  0  0  0  0  0
    1.3340    0.0110   -1.4254 N   0  0  1  0  0  0
   -1.3340   -0.0110   -1.4254 N   0  0  1  0  0  0
   -1.3340    0.0110    1.4254 N   0  0  1  0  0  0
    1.3340   -0.0110    1.4254 N   0  0  1  0  0  0
    0.6749    0.3373   -2.7202 C   0  0  2  0  0  0
   -0.6749   -0.3373   -2.7202 C   0  0  2  0  0  0
   -0.6749    0.3373    2.7202 C   0  0  2  0  0  0
    0.6749   -0.3373    2.7202 C   0  0  2  0  0  0
    1.9818    0.6362   -1.2402 H   0  0  0  0  0  0
    1.7374   -0.8117   -1.4805 H   0  0  0  0  0  0
   -1.9818   -0.6362   -1.2402 H   0  0  0  0  0  0
   -1.7374    0.8117   -1.4805 H   0  0  0  0  0  0
   -1.9818    0.6362    1.2402 H   0  0  0  0  0  0
   -1.7374   -0.8117    1.4805 H   0  0  0  0  0  0
    1.9818   -0.6362    1.2402 H   0  0  0  0  0  0
    1.7374    0.8117    1.4805 H   0  0  0  0  0  0
    1.2235    0.0090   -3.4745 H   0  0  0  0  0  0
    0.5679    1.3158   -2.8126 H   0  0  0  0  0  0
   -1.2235   -0.0090   -3.4745 H   0  0  0  0  0  0
   -0.5679   -1.3158   -2.8126 H   0  0  0  0  0  0
   -1.2235    0.0090    3.4745 H   0  0  0  0  0  0
   -0.5679    1.3158    2.8126 H   0  0  0  0  0  0
    1.2235   -0.0090    3.4745 H   0  0  0  0  0  0
    0.5679   -1.3158    2.8126 H   0  0  0  0  0  0
  1  2  1  0  0  0
  1  3  1  0  0  0
  1  4  1  0  0  0
  1  5  1  0  0  0
  1  6  1  0  0  0
  1  7  1  0  0  0
  4 12  1  0  0  0
  4 13  1  0  0  0
  4  8  1  0  0  0
  5 14  1  0  0  0
  5 15  1  0  0  0
  5  9  1  0  0  0
  6 16  1  0  0  0
  6 17  1  0  0  0
  6 10  1  0  0  0
  7 18  1  0  0  0
  7 19  1  0  0  0
  7 11  1  0  0  0
  8 20  1  0  0  0
  8 21  1  0  0  0
  8  9  1  0  0  0
  9 22  1  0  0  0
  9 23  1  0  0  0
 10 24  1  0  0  0
 10 25  1  0  0  0
 10 11  1  0  0  0
 11 26  1  0  0  0
 11 27  1  0  0  0
M  END
