c:/temp/sym/json/yefyoy.json
__Jmol-15_08012216143D 1   1.00000     0.00000     0
Jmol version 15.2.66  2021-02-10 09:12 EXTRACT: ({0:10})
 11 10  0  0  0  0            999 V2000
    0.0000    0.0000    0.0000 Os  0  0  0  0  0  0
    0.0000    0.0000   -2.4072 Cl  0  0  0  0  0  0
    2.1930    2.1930    0.0000 O   0  0  0  0  0  0
    1.3992    1.3992    0.0000 C   0  0  0  0  0  0
    0.0000    0.0000    2.4072 Cl  0  0  0  0  0  0
   -2.1930   -2.1930    0.0000 O   0  0  0  0  0  0
    2.1930   -2.1930    0.0000 O   0  0  0  0  0  0
   -2.1930    2.1930    0.0000 O   0  0  0  0  0  0
   -1.3992   -1.3992    0.0000 C   0  0  0  0  0  0
    1.3992   -1.3992    0.0000 C   0  0  0  0  0  0
   -1.3992    1.3992    0.0000 C   0  0  0  0  0  0
 11  8  1  0  0  0
 10  1  1  0  0  0
  9  6  1  0  0  0
  7 10  1  0  0  0
  4  1  1  0  0  0
  3  4  1  0  0  0
  2  1  1  0  0  0
  1 11  1  0  0  0
  1  9  1  0  0  0
  1  5  1  0  0  0
M  END
