c:/temp/sym/json/yuhroi.json
__Jmol-15_08012216143D 1   1.00000     0.00000     0
Jmol version 15.2.66  2021-02-10 09:12 EXTRACT: ({0:6})
  7  6  0  0  0  0            999 V2000
    0.0000    0.0000    0.1083 Os  0  0  0  0  0  0
    0.0000    0.0000   -2.1701 Cl  0  0  0  0  0  0
    0.0000    2.3067    0.1629 Cl  0  0  0  0  0  0
    0.0000   -2.3067    0.1629 Cl  0  0  0  0  0  0
    1.9439    0.0000    0.1368 F   0  0  0  0  0  0
    0.0000    0.0000    2.0843 F   0  0  0  0  0  0
   -1.9439    0.0000    0.1368 F   0  0  0  0  0  0
  7  1  1  0  0  0
  6  1  1  0  0  0
  3  1  1  0  0  0
  1  4  1  0  0  0
  1  5  1  0  0  0
  1  2  1  0  0  0
M  END
